
#######################################################################
#
#                 Cambridge Crystallographic Data Centre
#                                CCDC 
#
#######################################################################
#
# If this CIF has been generated from an entry in the Cambridge 
# Structural Database, then it will include bibliographic, chemical, 
# crystal, experimental, refinement or atomic coordinate data resulting 
# from the CCDC's data processing and validation procedures.
#
#######################################################################

data_ACENIF
_symmetry_cell_setting           orthorhombic
_symmetry_space_group_name_H-M   'F d d 2'
_symmetry_Int_Tables_number      43
_space_group_name_Hall           'F 2 -2d'
loop_
_symmetry_equiv_pos_site_id
_symmetry_equiv_pos_as_xyz
1 x,y,z
2 -x,-y,z
3 1/4+x,1/4-y,1/4+z
4 1/4-x,1/4+y,1/4+z
5 x,1/2+y,1/2+z
6 -x,1/2-y,1/2+z
7 1/4+x,3/4-y,3/4+z
8 1/4-x,3/4+y,3/4+z
9 1/2+x,y,1/2+z
10 1/2-x,-y,1/2+z
11 3/4+x,1/4-y,3/4+z
12 3/4-x,1/4+y,3/4+z
13 1/2+x,1/2+y,z
14 1/2-x,1/2-y,z
15 3/4+x,3/4-y,1/4+z
16 3/4-x,3/4+y,1/4+z
_cell_length_a                   16.627(1)
_cell_length_b                   27.141(2)
_cell_length_c                   28.356(2)
_cell_angle_alpha                90
_cell_angle_beta                 90
_cell_angle_gamma                90
_cell_volume                     12796.3
loop_
_atom_site_label
_atom_site_type_symbol
_atom_site_fract_x
_atom_site_fract_y
_atom_site_fract_z
_atom_site_U_iso_or_equiv
_atom_site_thermal_displace_type
Zn1 Zn -0.15908(7) 0.21298(5) 0.77813(4) 0.0578 Uani
Zn2 Zn -0.30617(7) 0.14867(4) 0.83368(4) 0.0596 Uani
Zn3 Zn -0.09729(8) 0.30554(5) 0.70706(4) 0.0637 Uani
O1 O -0.2361(4) 0.2082(2) 0.8286(2) 0.0587 Uani
N1 N -0.3601(5) 0.1976(3) 0.8832(3) 0.0657 Uani
C1 C -0.4239(8) 0.1876(5) 0.9110(5) 0.0930 Uani
H1 H -0.4489(8) 0.1571(5) 0.9081(5) 0.0920 Uiso
C2 C -0.4524(8) 0.2194(5) 0.9424(5) 0.1017 Uani
H2 H -0.4975(8) 0.2115(5) 0.9603(5) 0.0920 Uiso
C3 C -0.4134(8) 0.2656(6) 0.9484(5) 0.0957 Uani
H3 H -0.4317(8) 0.2880(6) 0.9708(5) 0.0920 Uiso
C4 C -0.3494(7) 0.2762(5) 0.9211(4) 0.0790 Uani
H4 H -0.3235(7) 0.3064(5) 0.9233(4) 0.0920 Uiso
C5 C -0.3228(6) 0.2399(3) 0.8890(3) 0.0570 Uani
C6 C -0.2500 0.2500 0.8562(4) 0.0577 Uani
O2 O -0.1804(4) 0.2552(2) 0.7253(2) 0.0593 Uani
N2 N -0.1929(5) 0.3242(3) 0.6617(3) 0.0680 Uani
C7 C -0.1933(9) 0.3644(6) 0.6323(5) 0.1003 Uani
H5 H -0.1474(9) 0.3837(6) 0.6292(5) 0.1750 Uiso
C8 C -0.2587(10) 0.3754(6) 0.6085(7) 0.1267 Uani
H6 H -0.2598(10) 0.4043(6) 0.5908(7) 0.1750 Uiso
C9 C -0.3303(10) 0.3434(6) 0.6090(6) 0.1160 Uani
H7 H -0.3746(10) 0.3488(6) 0.5897(6) 0.1750 Uiso
C10 C -0.3261(8) 0.3043(4) 0.6411(4) 0.0847 Uani
H8 H -0.3712(8) 0.2846(4) 0.6457(4) 0.1750 Uiso
C11 C -0.2581(6) 0.2945(3) 0.6655(3) 0.0600 Uani
C12 C -0.2500 0.2500 0.6976(4) 0.0597 Uani
O3 O -0.4196(6) 0.1265(3) 0.7328(3) 0.0860 Uani
O4 O -0.4130(4) 0.1265(3) 0.8111(2) 0.0747 Uani
C13 C -0.4409(6) 0.1150(4) 0.7722(4) 0.0660 Uani
C14 C -0.5113(10) 0.0783(7) 0.7752(6) 0.1307 Uani
H9 H -0.4941(29) 0.0492(25) 0.7915(48) 0.1980 Uiso
H10 H -0.5286(61) 0.0697(44) 0.7439(6) 0.1980 Uiso
H11 H -0.5551(36) 0.0932(22) 0.7920(48) 0.1980 Uiso
O5 O -0.0112(5) 0.2811(3) 0.7568(3) 0.0907 Uani
O6 O -0.0592(5) 0.2317(3) 0.8102(3) 0.0883 Uani
C15 C -0.0062(6) 0.2607(4) 0.7933(4) 0.0747 Uani
C16 C 0.0642(8) 0.2687(7) 0.8254(6) 0.1200 Uani
H12 H 0.0500(18) 0.2592(30) 0.8569(8) 0.1030 Uiso
H13 H 0.0790(32) 0.3029(8) 0.8250(23) 0.1030 Uiso
H14 H 0.1088(17) 0.2491(24) 0.8148(18) 0.1030 Uiso
O7 O -0.2434(5) 0.1109(3) 0.7812(4) 0.0987 Uani
O8 O -0.1324(5) 0.1467(3) 0.7562(3) 0.0960 Uani
C17 C -0.1772(7) 0.1110(4) 0.7643(5) 0.0800 Uani
C18 C -0.1423(12) 0.0635(6) 0.7463(10) 0.1780 Uani
H15 H -0.0852(13) 0.0669(12) 0.7428(31) 0.1190 Uiso
H16 H -0.1659(39) 0.0557(16) 0.7163(16) 0.1190 Uiso
H17 H -0.1537(46) 0.0375(9) 0.7683(16) 0.1190 Uiso
O9 O -0.2671(5) 0.0997(3) 0.8807(3) 0.0823 Uani
O10 O -0.2258(5) 0.0279(3) 0.9084(3) 0.0890 Uani
C19 C -0.2691(7) 0.0540(5) 0.8810(4) 0.0830 Uani
C20 C -0.3225(10) 0.0251(5) 0.8482(6) 0.1127 Uani
H18 H -0.3265(52) -0.0083(11) 0.8591(22) 0.1310 Uiso
H19 H -0.3001(32) 0.0255(32) 0.8170(10) 0.1310 Uiso
H20 H -0.3751(19) 0.0397(23) 0.8477(28) 0.1310 Uiso
O1M O -0.2639(4) 0.2918(2) 0.8286(2) 0.0587 Uani
C5M C -0.1772(6) 0.2601(3) 0.8890(3) 0.0570 Uani
N1M N -0.1399(5) 0.3024(3) 0.8832(3) 0.0657 Uani
C1M C -0.0761(8) 0.3124(5) 0.9110(5) 0.0930 Uani
H1M H -0.0511(8) 0.3429(5) 0.9081(5) 0.0920 Uiso
C2M C -0.0476(8) 0.2806(5) 0.9424(5) 0.1017 Uani
H2M H -0.0025(8) 0.2885(5) 0.9603(5) 0.0920 Uiso
C3M C -0.0866(8) 0.2344(6) 0.9484(5) 0.0957 Uani
H3M H -0.0683(8) 0.2120(6) 0.9708(5) 0.0920 Uiso
C4M C -0.1506(7) 0.2238(5) 0.9211(4) 0.0790 Uani
H4M H -0.1765(7) 0.1936(5) 0.9233(4) 0.0920 Uiso
O2M O -0.3196(4) 0.2448(2) 0.7253(2) 0.0593 Uani
C11M C -0.2419(6) 0.2055(3) 0.6655(3) 0.0600 Uani
N2M N -0.3071(5) 0.1758(3) 0.6617(3) 0.0680 Uani
C7M C -0.3067(9) 0.1356(6) 0.6323(5) 0.1003 Uani
H5M H -0.3526(9) 0.1163(6) 0.6292(5) 0.1750 Uiso
C8M C -0.2413(10) 0.1246(6) 0.6085(7) 0.1267 Uani
H6M H -0.2402(10) 0.0957(6) 0.5908(7) 0.1750 Uiso
C9M C -0.1697(10) 0.1566(6) 0.6090(6) 0.1160 Uani
H7M H -0.1254(10) 0.1512(6) 0.5897(6) 0.1750 Uiso
C10M C -0.1739(8) 0.1957(4) 0.6411(4) 0.0847 Uani
H8M H -0.1288(8) 0.2154(4) 0.6457(4) 0.1750 Uiso
Zn1M Zn -0.34092(7) 0.28702(5) 0.77813(4) 0.0578 Uani
Zn2M Zn -0.19383(7) 0.35133(4) 0.83368(4) 0.0596 Uani
Zn3M Zn -0.40271(8) 0.19446(5) 0.70706(4) 0.0637 Uani
O3M O -0.0804(6) 0.3735(3) 0.7328(3) 0.0860 Uani
O4M O -0.0870(4) 0.3735(3) 0.8111(2) 0.0747 Uani
C13M C -0.0591(6) 0.3850(4) 0.7722(4) 0.0660 Uani
C14M C 0.0113(10) 0.4217(7) 0.7752(6) 0.1307 Uani
H9M H -0.0059(29) 0.4508(25) 0.7915(48) 0.1980 Uiso
H10M H 0.0286(61) 0.4303(44) 0.7439(6) 0.1980 Uiso
H11M H 0.0551(36) 0.4068(22) 0.7920(48) 0.1980 Uiso
O9K O 0.0171(5) 0.3497(3) 0.6307(3) 0.0823 Uani
O10K O -0.0242(5) 0.2779(3) 0.6584(3) 0.0890 Uani
C19K C 0.0191(7) 0.3040(5) 0.6310(4) 0.0830 Uani
C20K C 0.0725(10) 0.2751(5) 0.5982(6) 0.1127 Uani
H18K H 0.0765(52) 0.2417(11) 0.6091(22) 0.1310 Uiso
H19K H 0.0501(32) 0.2755(32) 0.5670(10) 0.1310 Uiso
H20K H 0.1251(19) 0.2897(23) 0.5977(28) 0.1310 Uiso
O5M O -0.4888(5) 0.2189(3) 0.7568(3) 0.0907 Uani
O6M O -0.4408(5) 0.2683(3) 0.8102(3) 0.0883 Uani
C15M C -0.4938(6) 0.2393(4) 0.7933(4) 0.0747 Uani
C16M C -0.5642(8) 0.2313(7) 0.8254(6) 0.1200 Uani
H12M H -0.5500(18) 0.2408(30) 0.8569(8) 0.1030 Uiso
H13M H -0.5790(32) 0.1971(8) 0.8250(23) 0.1030 Uiso
H14M H -0.6088(17) 0.2509(24) 0.8148(18) 0.1030 Uiso
O7M O -0.2566(5) 0.3891(3) 0.7812(4) 0.0987 Uani
O8M O -0.3676(5) 0.3533(3) 0.7562(3) 0.0960 Uani
C17M C -0.3228(7) 0.3890(4) 0.7643(5) 0.0800 Uani
C18M C -0.3577(12) 0.4365(6) 0.7463(10) 0.1780 Uani
H15M H -0.4148(13) 0.4331(12) 0.7428(31) 0.1190 Uiso
H16M H -0.3341(39) 0.4443(16) 0.7163(16) 0.1190 Uiso
H17M H -0.3463(46) 0.4625(9) 0.7683(16) 0.1190 Uiso
Zn3O Zn -0.15271(8) 0.05554(5) 0.95706(4) 0.0637 Uani
O9M O -0.2329(5) 0.4003(3) 0.8807(3) 0.0823 Uani
O10J O -0.4758(5) 0.2221(3) 0.6584(3) 0.0890 Uani
Zn2K Zn 0.05617(7) 0.39867(4) 0.58368(4) 0.0596 Uani
loop_
_atom_site_aniso_label
_atom_site_aniso_U_11
_atom_site_aniso_U_22
_atom_site_aniso_U_33
_atom_site_aniso_U_23
_atom_site_aniso_U_13
_atom_site_aniso_U_12
Zn1 0.0565(6) 0.0589(7) 0.0581(7) 0.0074(5) 0.0048(5) 0.0007(5)
Zn2 0.0598(7) 0.0594(6) 0.0597(6) 0.0002(5) -0.0041(5) -0.0069(5)
Zn3 0.0653 0.0653 0.0604 0.0068 0.0093 -0.0098
O1 0.062(3) 0.064(3) 0.050(3) -0.009(3) 0.008(3) -0.005(3)
N1 0.062(5) 0.069(5) 0.066(5) -0.008(4) 0.011(4) -0.016(4)
C1 0.095(8) 0.089(8) 0.095(8) -0.006(7) 0.038(7) -0.028(7)
C2 0.085(8) 0.113(11) 0.107(9) -0.017(8) 0.049(7) -0.016(7)
C3 0.090(8) 0.113(11) 0.084(8) -0.013(7) 0.027(6) -0.006(7)
C4 0.089(7) 0.083(7) 0.065(6) -0.014(5) 0.010(5) -0.014(6)
C5 0.069(5) 0.055(5) 0.047(4) -0.002(4) 0.005(4) 0.002(4)
C6 0.065(7) 0.071(8) 0.037(6) 0.000 0.000 -0.016(6)
O2 0.061(3) 0.066(4) 0.051(3) 0.005(3) -0.003(3) -0.009(3)
N2 0.076 0.062 0.066 0.012 0 -0.005
C7 0.101 0.112 0.088 0.033 -0.012 -0.017
C8 0.115 0.103 0.162 0.072 0.014 0.005
C9 0.113 0.121 0.114 0.067 -0.012 -0.006
C10 0.082 0.07 0.102 0.018 -0.004 -0.005
C11 0.069 0.053 0.058 -0.003 0.003 -0.002
C12 0.071(8) 0.056(7) 0.052(7) 0.000 0.000 -0.008(6)
O3 0.127(7) 0.064(4) 0.067(4) -0.005(4) -0.002(4) 0.012(4)
O4 0.063(4) 0.101(6) 0.060(4) -0.013(4) -0.003(3) -0.010(4)
C13 0.065(6) 0.064(6) 0.069(6) -0.008(5) -0.001(5) -0.002(4)
C14 0.120(12) 0.147(15) 0.125(12) -0.014(11) 0.001(10) -0.065(11)
O5 0.072(5) 0.096(6) 0.104(6) 0.017(5) -0.004(4) -0.009(4)
O6 0.062(4) 0.113(7) 0.090(5) 0.029(5) -0.005(4) -0.009(4)
C15 0.063(6) 0.079(7) 0.082(7) 0.009(6) -0.005(5) 0.001(5)
C16 0.072(8) 0.145(15) 0.143(13) 0.035(11) -0.023(8) -0.016(8)
O7 0.081(5) 0.098(6) 0.117(6) -0.031(5) 0.014(5) -0.008(4)
O8 0.086(5) 0.081(5) 0.121(7) -0.017(5) 0.032(5) -0.007(4)
C17 0.069(7) 0.070(7) 0.101(8) -0.017(6) 0.012(6) 0.005(5)
C18 0.135(14) 0.065(8) 0.334(33) -0.079(14) 0.061(17) -0.010(9)
O9 0.101(6) 0.060(4) 0.086(5) 0.001(4) -0.039(4) 0.004(4)
O10 0.098(5) 0.085(5) 0.084(5) 0.014(4) -0.028(4) 0.011(4)
C19 0.080(7) 0.105(10) 0.064(6) 0.007(6) -0.022(5) 0.007(6)
C20 0.136(11) 0.080(8) 0.122(11) 0.018(8) -0.073(10) -0.024(8)
O1M 0.062 0.064 0.05 0.009 -0.008 -0.005
C5M 0.069 0.055 0.047 0.002 -0.005 0.002
N1M 0.062 0.069 0.066 0.008 -0.011 -0.016
C1M 0.095 0.089 0.095 0.006 -0.038 -0.028
C2M 0.085 0.113 0.107 0.017 -0.049 -0.016
C3M 0.09 0.113 0.084 0.013 -0.027 -0.006
C4M 0.089 0.083 0.065 0.014 -0.01 -0.014
O2M 0.061 0.066 0.051 -0.005 0.003 -0.009
C11M 0.069(5) 0.053(5) 0.058(5) 0.003(4) -0.003(4) -0.002(4)
N2M 0.076(5) 0.062(5) 0.066(5) -0.012(4) 0.000(4) -0.005(4)
C7M 0.101(10) 0.112(10) 0.088(8) -0.033(8) 0.012(7) -0.017(8)
C8M 0.115(11) 0.103(11) 0.162(15) -0.072(11) -0.014(11) 0.005(9)
C9M 0.113(11) 0.121(12) 0.114(10) -0.067(10) 0.012(8) -0.006(9)
C10M 0.082(7) 0.070(7) 0.102(9) -0.018(6) 0.004(6) -0.005(5)
Zn1M 0.0565 0.0589 0.0581 -0.0074 -0.0048 0.0007
Zn2M 0.0598 0.0594 0.0597 -0.0002 0.0041 -0.0069
Zn3M 0.0653(7) 0.0653(8) 0.0604(7) -0.0068(6) -0.0093(6) -0.0098(5)
O3M 0.127 0.064 0.067 0.005 0.002 0.012
O4M 0.063 0.101 0.06 0.013 0.003 -0.01
C13M 0.065 0.064 0.069 0.008 0.001 -0.002
C14M 0.12 0.147 0.125 0.014 -0.001 -0.065
O9K 0.101 0.06 0.086 0.001 0.039 -0.004
O10K 0.098 0.085 0.084 0.014 0.028 -0.011
C19K 0.08 0.105 0.064 0.007 0.022 -0.007
C20K 0.136 0.08 0.122 0.018 0.073 0.024
O5M 0.072 0.096 0.104 -0.017 0.004 -0.009
O6M 0.062 0.113 0.09 -0.029 0.005 -0.009
C15M 0.063 0.079 0.082 -0.009 0.005 0.001
C16M 0.072 0.145 0.143 -0.035 0.023 -0.016
O7M 0.081 0.098 0.117 0.031 -0.014 -0.008
O8M 0.086 0.081 0.121 0.017 -0.032 -0.007
C17M 0.069 0.07 0.101 0.017 -0.012 0.005
C18M 0.135 0.065 0.334 0.079 -0.061 -0.01
Zn3O 0.0653 0.0653 0.0604 0.0068 -0.0093 0.0098
O9M 0.101 0.06 0.086 -0.001 0.039 0.004
O10J 0.098 0.085 0.084 -0.014 -0.028 -0.011
Zn2K 0.0598 0.0594 0.0597 0.0002 0.0041 0.0069
loop_
_geom_bond_atom_site_label_1
_geom_bond_atom_site_label_2
_geom_bond_site_symmetry_1
_geom_bond_site_symmetry_2
Zn1 O1 1_555 1_555
Zn2 O1 1_555 1_555
Zn3 O2 1_555 1_555
O1 C6 1_555 1_555
N1 Zn2 1_555 1_555
C1 N1 1_555 1_555
H1 C1 1_555 1_555
C2 C1 1_555 1_555
H2 C2 1_555 1_555
C3 C2 1_555 1_555
H3 C3 1_555 1_555
C4 C3 1_555 1_555
H4 C4 1_555 1_555
C5 N1 1_555 1_555
C6 C5 1_555 1_555
O2 Zn1 1_555 1_555
N2 Zn3 1_555 1_555
C7 N2 1_555 1_555
H5 C7 1_555 1_555
C8 C7 1_555 1_555
H6 C8 1_555 1_555
C9 C8 1_555 1_555
H7 C9 1_555 1_555
C10 C9 1_555 1_555
H8 C10 1_555 1_555
C11 N2 1_555 1_555
C12 O2 1_555 1_555
O3 C13 1_555 1_555
O4 Zn2 1_555 1_555
C13 O4 1_555 1_555
C14 C13 1_555 1_555
H9 C14 1_555 1_555
H10 C14 1_555 1_555
H11 C14 1_555 1_555
O5 Zn3 1_555 1_555
O6 Zn1 1_555 1_555
C15 O5 1_555 1_555
C16 C15 1_555 1_555
H12 C16 1_555 1_555
H13 C16 1_555 1_555
H14 C16 1_555 1_555
O7 Zn2 1_555 1_555
O8 Zn1 1_555 1_555
C17 O7 1_555 1_555
C18 C17 1_555 1_555
H15 C18 1_555 1_555
H16 C18 1_555 1_555
H17 C18 1_555 1_555
O9 Zn2 1_555 1_555
O10 C19 1_555 1_555
C19 O9 1_555 1_555
C20 C19 1_555 1_555
H18 C20 1_555 1_555
H19 C20 1_555 1_555
H20 C20 1_555 1_555
O1M C6 1_555 1_555
C5M C6 1_555 1_555
N1M C5M 1_555 1_555
C1M N1M 1_555 1_555
H1M C1M 1_555 1_555
C2M C1M 1_555 1_555
H2M C2M 1_555 1_555
C3M C2M 1_555 1_555
H3M C3M 1_555 1_555
C4M C5M 1_555 1_555
H4M C4M 1_555 1_555
O2M C12 1_555 1_555
C11M C12 1_555 1_555
N2M C11M 1_555 1_555
C7M N2M 1_555 1_555
H5M C7M 1_555 1_555
C8M C7M 1_555 1_555
H6M C8M 1_555 1_555
C9M C8M 1_555 1_555
H7M C9M 1_555 1_555
C10M C11M 1_555 1_555
H8M C10M 1_555 1_555
Zn1M O1M 1_555 1_555
Zn2M O1M 1_555 1_555
Zn3M O3 1_555 1_555
O3M Zn3 1_555 1_555
O4M Zn2M 1_555 1_555
C13M O3M 1_555 1_555
C14M C13M 1_555 1_555
H9M C14M 1_555 1_555
H10M C14M 1_555 1_555
H11M C14M 1_555 1_555
O9K C19K 1_555 1_555
O10K Zn3 1_555 1_555
C19K O10K 1_555 1_555
C20K C19K 1_555 1_555
H18K C20K 1_555 1_555
H19K C20K 1_555 1_555
H20K C20K 1_555 1_555
O5M Zn3M 1_555 1_555
O6M Zn1M 1_555 1_555
C15M O5M 1_555 1_555
C16M C15M 1_555 1_555
H12M C16M 1_555 1_555
H13M C16M 1_555 1_555
H14M C16M 1_555 1_555
O7M Zn2M 1_555 1_555
O8M Zn1M 1_555 1_555
C17M O7M 1_555 1_555
C18M C17M 1_555 1_555
H15M C18M 1_555 1_555
H16M C18M 1_555 1_555
H17M C18M 1_555 1_555
Zn3O O10 1_555 1_555
O9M Zn2M 1_555 1_555
O10J Zn3M 1_555 1_555
Zn2K O9K 1_555 1_555
C4 C5 1_555 1_555
C10 C11 1_555 1_555
C11 C12 1_555 1_555
O6 C15 1_555 1_555
O8 C17 1_555 1_555
N1M Zn2M 1_555 1_555
C3M C4M 1_555 1_555
O2M Zn1M 1_555 1_555
O2M Zn3M 1_555 1_555
N2M Zn3M 1_555 1_555
C9M C10M 1_555 1_555
O4M C13M 1_555 1_555
O6M C15M 1_555 1_555
O8M C17M 1_555 1_555

#END
