
#######################################################################
#
#                 Cambridge Crystallographic Data Centre
#                                CCDC 
#
#######################################################################
#
# If this CIF has been generated from an entry in the Cambridge 
# Structural Database, then it will include bibliographic, chemical, 
# crystal, experimental, refinement or atomic coordinate data resulting 
# from the CCDC's data processing and validation procedures.
#
#######################################################################

data_ADABAK
_symmetry_cell_setting           monoclinic
_symmetry_space_group_name_H-M   'C 2/c'
_symmetry_Int_Tables_number      15
_space_group_name_Hall           '-C 2yc'
loop_
_symmetry_equiv_pos_site_id
_symmetry_equiv_pos_as_xyz
1 x,y,z
2 -x,y,1/2-z
3 1/2+x,1/2+y,z
4 1/2-x,1/2+y,1/2-z
5 -x,-y,-z
6 x,-y,1/2+z
7 1/2-x,1/2-y,-z
8 1/2+x,1/2-y,1/2+z
_cell_length_a                   28.697(2)
_cell_length_b                   9.2637(5)
_cell_length_c                   9.3223(5)
_cell_angle_alpha                90
_cell_angle_beta                 116.087(4)
_cell_angle_gamma                90
_cell_volume                     2225.78
loop_
_atom_site_label
_atom_site_type_symbol
_atom_site_fract_x
_atom_site_fract_y
_atom_site_fract_z
_atom_site_U_iso_or_equiv
_atom_site_thermal_displace_type
Cu1 Cu 0.18682(19) 0.8289(6) 0.3113(6) 0.0360 Uiso
O1 O 0.1250(6) 1.0750(18) 0.340(2) 0.0620 Uiso
O2 O 0.1426(6) 1.177(2) 0.5772(18) 0.0620 Uiso
N1 N 0.2178(5) 1.0042(18) 0.7372(14) 0.0620 Uiso
N2 N 0.2550(4) 0.9029(19) 0.7914(13) 0.0620 Uiso
N3 N 0.2522(4) 0.8284(14) 0.6666(17) 0.0620 Uiso
N4 N 0.2139(5) 0.8802(17) 0.5343(14) 0.0620 Uiso
N5 N 0.1415(3) 0.6590(9) 0.3297(12) 0.0620 Uiso
C1 C 0.1493(3) 1.0864(14) 0.485(2) 0.0620 Uiso
C2 C 0.1933(3) 0.9878(11) 0.5802(13) 0.0620 Uiso
C3 C 0.1077(5) 0.7170(9) 0.3780(15) 0.0620 Uiso
C4 C 0.0702(4) 0.6392(10) 0.4014(13) 0.0620 Uiso
C5 C 0.06779(17) 0.4916(10) 0.3722(5) 0.0620 Uiso
C6 C 0.1021(3) 0.4281(9) 0.3224(14) 0.0620 Uiso
C7 C 0.1382(3) 0.5156(9) 0.3026(16) 0.0620 Uiso
C8 C 0.02799(14) 0.4000(12) 0.39533(13) 0.0620 Uiso
C9 C 0.00000 0.3057(13) 0.25000 0.0620 Uiso
H1 H 0.109707 0.819031 0.397655 0.0747 Uiso
H2 H 0.046969 0.685455 0.436102 0.0747 Uiso
H3 H 0.100856 0.326244 0.302152 0.0747 Uiso
H4 H 0.161855 0.471912 0.268001 0.0747 Uiso
H5 H 0.003934 0.46015 0.409283 0.0747 Uiso
H6 H 0.044724 0.341391 0.486102 0.0747 Uiso
H7 H 0.02337 0.24148 0.23773 0.0747 Uiso
Cu1A Cu -0.18682(19) 0.8289(6) 0.1887(6) 0.0360 Uiso
Cu1D Cu -0.18682(19) 1.1711(6) -0.3113(6) 0.0360 Uiso
Cu1E Cu 0.18682(19) 1.1711(6) 0.8113(6) 0.0360 Uiso
Cu1F Cu 0.31318(19) 0.6711(6) 0.6887(6) 0.0360 Uiso
Cu1G Cu -0.31318(19) 0.6711(6) -0.1887(6) 0.0360 Uiso
O1A O -0.1250(6) 1.0750(18) 0.160(2) 0.0620 Uiso
O2A O -0.1426(6) 1.177(2) -0.0772(18) 0.0620 Uiso
O2D O -0.1426(6) 0.823(2) 0.4228(18) 0.0620 Uiso
O2E O 0.1426(6) 0.823(2) 0.0772(18) 0.0620 Uiso
N1A N -0.2178(5) 1.0042(18) -0.2372(14) 0.0620 Uiso
N1D N -0.2178(5) 0.9958(18) 0.2628(14) 0.0620 Uiso
N1E N 0.2178(5) 0.9958(18) 0.2372(14) 0.0620 Uiso
N2A N -0.2550(4) 0.9029(19) -0.2914(13) 0.0620 Uiso
N3A N -0.2522(4) 0.8284(14) -0.1666(17) 0.0620 Uiso
N3F N 0.2478(4) 0.6716(14) 0.3334(17) 0.0620 Uiso
N3G N -0.2478(4) 0.6716(14) 0.1666(17) 0.0620 Uiso
N4A N -0.2139(5) 0.8802(17) -0.0343(14) 0.0620 Uiso
N5A N -0.1415(3) 0.6590(9) 0.1703(12) 0.0620 Uiso
C1A C -0.1493(3) 1.0864(14) 0.015(2) 0.0620 Uiso
C2A C -0.1933(3) 0.9878(11) -0.0802(13) 0.0620 Uiso
C3A C -0.1077(5) 0.7170(9) 0.1220(15) 0.0620 Uiso
C4A C -0.0702(4) 0.6392(10) 0.0986(13) 0.0620 Uiso
C5A C -0.06779(17) 0.4916(10) 0.1278(5) 0.0620 Uiso
C6A C -0.1021(3) 0.4281(9) 0.1776(14) 0.0620 Uiso
C7A C -0.1382(3) 0.5156(9) 0.1974(16) 0.0620 Uiso
C8A C -0.02799(14) 0.4000(12) 0.10467(13) 0.0620 Uiso
H1A H -0.109707 0.819031 0.102345 0.0747 Uiso
H2A H -0.046969 0.685455 0.063898 0.0747 Uiso
H3A H -0.100856 0.326244 0.197848 0.0747 Uiso
H4A H -0.161855 0.471912 0.231999 0.0747 Uiso
H5A H -0.003934 0.46015 0.090717 0.0747 Uiso
H6A H -0.044724 0.341391 0.013898 0.0747 Uiso
H7A H -0.02337 0.24148 0.26227 0.0747 Uiso
loop_
_geom_bond_atom_site_label_1
_geom_bond_atom_site_label_2
_geom_bond_site_symmetry_1
_geom_bond_site_symmetry_2
Cu1 N4 1_555 1_555
O1 C1 1_555 1_555
O2 C1 1_555 1_555
N1 N2 1_555 1_555
N2 N3 1_555 1_555
N3 N4 1_555 1_555
N4 C2 1_555 1_555
N5 Cu1 1_555 1_555
C1 C2 1_555 1_555
C2 N1 1_555 1_555
C3 N5 1_555 1_555
C4 C3 1_555 1_555
C5 C4 1_555 1_555
C6 C5 1_555 1_555
C7 N5 1_555 1_555
C8 C5 1_555 1_555
C9 C8 1_555 1_555
H1 C3 1_555 1_555
H2 C4 1_555 1_555
H3 C6 1_555 1_555
H4 C7 1_555 1_555
H5 C8 1_555 1_555
H6 C8 1_555 1_555
H7 C9 1_555 1_555
Cu1A O2D 1_555 1_555
Cu1D O2A 1_555 1_555
Cu1E O2 1_555 1_555
Cu1F N3 1_555 1_555
Cu1G N3A 1_555 1_555
O1A C1A 1_555 1_555
O2A C1A 1_555 1_555
O2E Cu1 1_555 1_555
N1A Cu1D 1_555 1_555
N1D Cu1A 1_555 1_555
N1E Cu1 1_555 1_555
N2A N1A 1_555 1_555
N3A N2A 1_555 1_555
N3F Cu1 1_555 1_555
N3G Cu1A 1_555 1_555
N4A Cu1A 1_555 1_555
N5A Cu1A 1_555 1_555
C1A C2A 1_555 1_555
C2A N1A 1_555 1_555
C3A N5A 1_555 1_555
C4A C3A 1_555 1_555
C5A C4A 1_555 1_555
C6A C5A 1_555 1_555
C7A N5A 1_555 1_555
C8A C9 1_555 1_555
H1A C3A 1_555 1_555
H2A C4A 1_555 1_555
H3A C6A 1_555 1_555
H4A C7A 1_555 1_555
H5A C8A 1_555 1_555
H6A C8A 1_555 1_555
H7A C9 1_555 1_555
N1 Cu1E 1_555 1_555
C6 C7 1_555 1_555
N3A N4A 1_555 1_555
N4A C2A 1_555 1_555
C5A C8A 1_555 1_555
C6A C7A 1_555 1_555

#END
