
#######################################################################
#
#                 Cambridge Crystallographic Data Centre
#                                CCDC 
#
#######################################################################
#
# If this CIF has been generated from an entry in the Cambridge 
# Structural Database, then it will include bibliographic, chemical, 
# crystal, experimental, refinement or atomic coordinate data resulting 
# from the CCDC's data processing and validation procedures.
#
#######################################################################

data_ADOGUZ
_symmetry_cell_setting           triclinic
_symmetry_space_group_name_H-M   'P -1'
_symmetry_Int_Tables_number      2
_space_group_name_Hall           '-P 1'
loop_
_symmetry_equiv_pos_site_id
_symmetry_equiv_pos_as_xyz
1 x,y,z
2 -x,-y,-z
_cell_length_a                   9.6429(19)
_cell_length_b                   13.596(3)
_cell_length_c                   20.270(4)
_cell_angle_alpha                84.83(3)
_cell_angle_beta                 83.61(3)
_cell_angle_gamma                75.82(3)
_cell_volume                     2555.06
loop_
_atom_site_label
_atom_site_type_symbol
_atom_site_fract_x
_atom_site_fract_y
_atom_site_fract_z
Eu1 Eu 0.25135(8) 1.01501(6) 0.48438(4)
Eu2 Eu 0.24994(8) 0.51169(6) 1.01833(4)
O1 O 0.3826(13) 0.8432(8) 0.5230(6)
O2 O 0.0833(14) 1.1737(9) 0.5187(6)
O3 O 0.1001(13) 0.6813(8) 0.9857(6)
O4 O 0.0904(14) 0.9771(8) 0.5739(6)
C1 C 0.0197(15) 0.9283(11) 0.6131(7)
O5 O 0.4154(13) 0.5613(8) 0.9392(6)
O6 O 0.0617(13) 0.5437(9) 1.1028(6)
O7 O 0.6239(12) 0.5857(9) 0.8913(6)
O8 O -0.5806(12) 0.9424(9) 1.3923(6)
O9 O 0.3285(12) 0.6422(9) 1.0716(6)
O10 O -0.1111(13) 0.9288(9) 0.6061(6)
C2 C -0.0658(16) 0.5436(12) 1.1102(8)
O11 O -0.3855(12) 0.9583(9) 1.4336(5)
C3 C -0.4461(16) 0.9212(12) 1.3939(8)
O12 O 0.2062(12) 0.8437(8) 0.4630(7)
C4 C 0.3611(14) 0.1839(10) 1.0091(9)
C5 C 0.3698(15) 0.6834(11) 0.4855(8)
C6 C 0.2743(14) 0.6841(10) 0.8313(7)
H1 H 0.2215 0.6458 0.8593
O13 O 0.1905(12) 0.3380(9) 1.0318(7)
C7 C 0.5418(15) 0.5287(9) 0.5152(9)
C8 C 0.0822(13) 0.8690(10) 0.6710(7)
C9 C 0.2098(13) 0.7469(10) 0.7785(6)
C10 C -0.1004(16) 0.6667(12) 1.1974(8)
H2 H -0.0029 0.6641 1.1890
C11 C 0.2231(13) 0.8657(11) 0.6835(7)
H3 H 0.2766 0.9038 0.6557
C12 C 0.3160(17) 0.2933(11) 1.0037(8)
C13 C -0.1615(15) 0.6073(11) 1.1625(8)
C14 C 0.4963(17) 0.6349(9) 0.5143(10)
H4 H 0.5494 0.6725 0.5325
C15 C 0.3201(19) 0.7963(13) 0.4935(9)
C16 C 0.0067(16) 0.8083(11) 0.7131(7)
H5 H -0.0861 0.8076 0.7049
C17 C -0.3068(14) 0.6090(12) 1.1754(7)
H6 H -0.3490 0.5718 1.1507
C18 C -0.1223(17) 0.7882(13) 1.2828(8)
H7 H -0.0239 0.7834 1.2767
C19 C -0.3340(16) 0.7311(12) 1.2594(7)
C20 C 0.4163(13) 0.6787(11) 0.8421(7)
C21 C 0.489(2) 0.6028(13) 0.8937(8)
C22 C 0.4494(15) -0.0270(12) 1.0114(10)
C23 C -0.4172(15) 0.7943(11) 1.3077(7)
H8 H -0.5147 0.7968 1.3167
C24 C -0.3530(13) 0.8533(12) 1.3420(7)
C25 C 0.2845(13) 0.8051(10) 0.7377(7)
O14 O 0.3527(13) 1.1558(9) 0.4369(7)
C26 C -0.3880(18) 0.6670(13) 1.2254(8)
H9 H -0.4826 0.6626 1.2365
C27 C -0.2063(13) 0.8523(12) 1.3291(8)
H10 H -0.1661 0.8940 1.3513
C28 C 0.4915(17) 0.7411(12) 0.8022(8)
H11 H 0.5857 0.7396 0.8093
C29 C -0.1825(17) 0.7301(12) 1.2449(8)
C30 C 0.6682(16) 0.4738(13) 0.5413(9)
H12 H 0.7238 0.5093 0.5598
C31 C 0.2667(17) 0.1222(9) 1.0317(8)
H13 H 0.1728 0.1530 1.0467
C32 C 0.3071(15) 0.0168(10) 1.0328(9)
H14 H 0.2420 -0.0228 1.0471
C33 C 0.286(2) 0.6283(14) 0.4590(10)
H15 H 0.2006 0.6617 0.4418
C34 C 0.4243(14) 0.8058(12) 0.7516(8)
H16 H 0.4726 0.8501 0.7267
C35 C 0.0678(14) 0.7489(12) 0.7670(8)
H17 H 0.0151 0.7107 0.7952
O15 O 0.3953(12) 0.3482(8) 0.9777(6)
C36 C 0.5029(15) 0.1337(13) 0.9893(8)
H18 H 0.5691 0.1729 0.9759
O16 O -0.1290(14) 0.5011(9) 1.0730(6)
O1A O 0.6174(13) 0.1568(8) 0.4770(6)
O12A O 0.7938(12) 0.1563(8) 0.5370(7)
C5A C 0.6302(15) 0.3166(11) 0.5145(8)
C7A C 0.4582(15) 0.4713(9) 0.4848(9)
C14A C 0.5037(17) 0.3651(9) 0.4857(10)
H4A H 0.4506 0.3275 0.4675
C15A C 0.6799(19) 0.2037(13) 0.5065(9)
C30A C 0.3318(16) 0.5262(13) 0.4587(9)
H12A H 0.2762 0.4907 0.4402
C33A C 0.714(2) 0.3717(14) 0.5410(10)
H15A H 0.7994 0.3383 0.5582
C4A C 0.6389(14) -0.1839(10) 0.9909(9)
O13A O 0.8095(12) -0.3380(9) 0.9682(7)
C12A C 0.6840(17) -0.2933(11) 0.9963(8)
C22A C 0.5506(15) 0.0270(12) 0.9886(10)
C31A C 0.7333(17) -0.1222(9) 0.9683(8)
H13A H 0.8272 -0.1530 0.9533
C32A C 0.6929(15) -0.0168(10) 0.9672(9)
H14A H 0.7580 0.0228 0.9529
O15A O 0.6047(12) -0.3482(8) 1.0223(6)
C36A C 0.4971(15) -0.1337(13) 1.0107(8)
H18A H 0.4309 -0.1729 1.0241
Eu1A Eu -0.25135(8) -0.01501(6) 1.51562(4)
Eu2A Eu -0.24994(8) 0.48831(6) 0.98167(4)
O2A O -0.0833(14) -0.1737(9) 1.4813(6)
O3A O -0.1001(13) 0.3187(8) 1.0143(6)
O4A O -0.0904(14) 0.0229(8) 1.4261(6)
C1A C -0.0197(15) 0.0717(11) 1.3869(7)
O5A O -0.4154(13) 0.4387(8) 1.0608(6)
O6A O -0.0617(13) 0.4563(9) 0.8972(6)
O7A O -0.6239(12) 0.4143(9) 1.1087(6)
O8A O 0.5806(12) 0.0576(9) 0.6077(6)
O9A O -0.3285(12) 0.3578(9) 0.9284(6)
O10A O 0.1111(13) 0.0712(9) 1.3939(6)
C2A C 0.0658(16) 0.4564(12) 0.8898(8)
O11A O 0.3855(12) 0.0417(9) 0.5664(5)
C3A C 0.4461(16) 0.0788(12) 0.6061(8)
C6A C -0.2743(14) 0.3159(10) 1.1687(7)
H1A H -0.2215 0.3542 1.1407
C8A C -0.0822(13) 0.1310(10) 1.3290(7)
C9A C -0.2098(13) 0.2531(10) 1.2215(6)
C10A C 0.1004(16) 0.3333(12) 0.8026(8)
H2A H 0.0029 0.3359 0.8110
C11A C -0.2231(13) 0.1343(11) 1.3165(7)
H3A H -0.2766 0.0962 1.3443
C13A C 0.1615(15) 0.3927(11) 0.8375(8)
C16A C -0.0067(16) 0.1917(11) 1.2869(7)
H5A H 0.0861 0.1924 1.2951
C17A C 0.3068(14) 0.3910(12) 0.8246(7)
H6A H 0.3490 0.4282 0.8493
C18A C 0.1223(17) 0.2118(13) 0.7172(8)
H7A H 0.0239 0.2166 0.7233
C19A C 0.3340(16) 0.2689(12) 0.7406(7)
C20A C -0.4163(13) 0.3213(11) 1.1579(7)
C21A C -0.489(2) 0.3972(13) 1.1063(8)
C23A C 0.4172(15) 0.2057(11) 0.6923(7)
H8A H 0.5147 0.2032 0.6833
C24A C 0.3530(13) 0.1467(12) 0.6580(7)
C25A C -0.2845(13) 0.1949(10) 1.2623(7)
O14A O -0.3527(13) -0.1558(9) 1.5631(7)
C26A C 0.3880(18) 0.3330(13) 0.7746(8)
H9A H 0.4826 0.3374 0.7635
C27A C 0.2063(13) 0.1477(12) 0.6709(8)
H10A H 0.1661 0.1060 0.6487
C28A C -0.4915(17) 0.2589(12) 1.1978(8)
H11A H -0.5857 0.2604 1.1907
C29A C 0.1825(17) 0.2699(12) 0.7551(8)
C34A C -0.4243(14) 0.1942(12) 1.2484(8)
H16A H -0.4726 0.1499 1.2733
C35A C -0.0678(14) 0.2511(12) 1.2330(8)
H17A H -0.0151 0.2893 1.2048
O16A O 0.1290(14) 0.4989(9) 0.9270(6)
Eu1_2 Eu -0.74865(8) 1.01501(6) 1.48438(4)
Eu1_3 Eu 0.25135(8) 0.01501(6) 0.48438(4)
Eu1_4 Eu 0.25135(8) 0.01501(6) 1.48438(4)
Eu1A_2 Eu -0.25135(8) 0.98499(6) 0.51562(4)
Eu1A_3 Eu -0.25135(8) 0.98499(6) 1.51562(4)
Eu1A_4 Eu 0.74865(8) -0.01501(6) 0.51562(4)
Eu2_2 Eu -0.75006(8) 0.51169(6) 1.01833(4)
Eu2A_2 Eu 0.75006(8) -0.51169(6) 0.98167(4)
Eu2A_3 Eu 0.75006(8) 0.48831(6) 0.98167(4)
O1A_2 O -0.3826(13) 0.1568(8) 1.4770(6)
O7_2 O -0.3761(12) 0.5857(9) 0.8913(6)
O7A_2 O 0.3761(12) 0.4143(9) 1.1087(6)
O8_2 O 0.4194(12) 0.9424(9) 0.3923(6)
O8A_2 O -0.4194(12) 0.0576(9) 1.6077(6)
O10_2 O -0.1111(13) -0.0712(9) 1.6061(6)
O10A_2 O 0.1111(13) 1.0712(9) 0.3939(6)
O11_2 O -0.3855(12) -0.0417(9) 1.4336(5)
O11A_2 O 0.3855(12) 1.0417(9) 0.5664(5)
O12A_2 O -0.2062(12) 0.1563(8) 1.5370(7)
O13A_2 O -0.1905(12) 0.6620(9) 0.9682(7)
O15A_2 O -0.3953(12) 0.6518(8) 1.0223(6)
loop_
_geom_bond_atom_site_label_1
_geom_bond_atom_site_label_2
_geom_bond_site_symmetry_1
_geom_bond_site_symmetry_2
Eu1 O1 1_555 1_555
Eu2 O3 1_555 1_555
O1 C15 1_555 1_555
O2 Eu1 1_555 1_555
O4 Eu1 1_555 1_555
C1 O4 1_555 1_555
O5 Eu2 1_555 1_555
O6 Eu2 1_555 1_555
O7 C21 1_555 1_555
O8 C3 1_555 1_555
O9 Eu2 1_555 1_555
O10 C1 1_555 1_555
C2 O6 1_555 1_555
O11 C3 1_555 1_555
C3 C24 1_555 1_555
O12 Eu1 1_555 1_555
C4 C12 1_555 1_555
C5 C14 1_555 1_555
C6 H1 1_555 1_555
O13 Eu2 1_555 1_555
C7 C14 1_555 1_555
C8 C1 1_555 1_555
C9 C6 1_555 1_555
C10 H2 1_555 1_555
C11 C8 1_555 1_555
H3 C11 1_555 1_555
C12 O13 1_555 1_555
C13 C2 1_555 1_555
C14 H4 1_555 1_555
C15 O12 1_555 1_555
C16 C8 1_555 1_555
H5 C16 1_555 1_555
C17 C13 1_555 1_555
H6 C17 1_555 1_555
C18 H7 1_555 1_555
C19 C23 1_555 1_555
C20 C6 1_555 1_555
C21 O5 1_555 1_555
C22 C32 1_555 1_555
C23 H8 1_555 1_555
C24 C23 1_555 1_555
C25 C9 1_555 1_555
O14 Eu1 1_555 1_555
C26 C17 1_555 1_555
H9 C26 1_555 1_555
C27 C18 1_555 1_555
H10 C27 1_555 1_555
C28 C20 1_555 1_555
H11 C28 1_555 1_555
C29 C10 1_555 1_555
C30 C7 1_555 1_555
H12 C30 1_555 1_555
C31 C4 1_555 1_555
H13 C31 1_555 1_555
C32 C31 1_555 1_555
H14 C32 1_555 1_555
C33 C5 1_555 1_555
H15 C33 1_555 1_555
C34 C25 1_555 1_555
H16 C34 1_555 1_555
C35 C9 1_555 1_555
H17 C35 1_555 1_555
O15 Eu2 1_555 1_555
C36 C4 1_555 1_555
H18 C36 1_555 1_555
O16 C2 1_555 1_555
O1A C15A 1_555 1_555
O12A C15A 1_555 1_555
C5A C14A 1_555 1_555
C7A C7 1_555 1_555
C14A C7A 1_555 1_555
H4A C14A 1_555 1_555
C15A C5A 1_555 1_555
C30A C33 1_555 1_555
H12A C30A 1_555 1_555
C33A C30 1_555 1_555
H15A C33A 1_555 1_555
C4A C12A 1_555 1_555
O13A C12A 1_555 1_555
C12A O15A 1_555 1_555
C22A C22 1_555 1_555
C31A C4A 1_555 1_555
H13A C31A 1_555 1_555
C32A C22A 1_555 1_555
H14A C32A 1_555 1_555
O15A Eu2A_2 1_555 1_555
C36A C22 1_555 1_555
H18A C36A 1_555 1_555
Eu1A O2A 1_555 1_555
Eu2A O16 1_555 1_555
O3A Eu2A 1_555 1_555
O4A Eu1A 1_555 1_555
C1A O4A 1_555 1_555
O5A Eu2A 1_555 1_555
O6A Eu2A 1_555 1_555
O7A C21A 1_555 1_555
O8A C3A 1_555 1_555
O9A Eu2A 1_555 1_555
O10A C1A 1_555 1_555
C2A O6A 1_555 1_555
O11A C3A 1_555 1_555
C3A C24A 1_555 1_555
C6A H1A 1_555 1_555
C8A C1A 1_555 1_555
C9A C6A 1_555 1_555
C10A H2A 1_555 1_555
C11A C8A 1_555 1_555
H3A C11A 1_555 1_555
C13A C2A 1_555 1_555
C16A C8A 1_555 1_555
H5A C16A 1_555 1_555
C17A C13A 1_555 1_555
H6A C17A 1_555 1_555
C18A H7A 1_555 1_555
C19A C23A 1_555 1_555
C20A C6A 1_555 1_555
C21A O5A 1_555 1_555
C23A H8A 1_555 1_555
C24A C23A 1_555 1_555
C25A C9A 1_555 1_555
O14A Eu1A 1_555 1_555
C26A C17A 1_555 1_555
H9A C26A 1_555 1_555
C27A C18A 1_555 1_555
H10A C27A 1_555 1_555
C28A C20A 1_555 1_555
H11A C28A 1_555 1_555
C29A C10A 1_555 1_555
C34A C25A 1_555 1_555
H16A C34A 1_555 1_555
C35A C9A 1_555 1_555
H17A C35A 1_555 1_555
O16A Eu2 1_555 1_555
Eu1_2 O8 1_555 1_555
Eu1_3 O11A 1_555 1_555
Eu1_4 O10A 1_555 1_555
Eu1A_2 O10 1_555 1_555
Eu1A_3 O11 1_555 1_555
Eu1A_4 O1A 1_555 1_555
Eu2_2 O7A 1_555 1_555
Eu2A_2 O13A 1_555 1_555
Eu2A_3 O7 1_555 1_555
O1A_2 Eu1A 1_555 1_555
O7_2 Eu2A 1_555 1_555
O7A_2 Eu2 1_555 1_555
O8_2 Eu1 1_555 1_555
O8A_2 Eu1A 1_555 1_555
O10_2 Eu1A 1_555 1_555
O10A_2 Eu1 1_555 1_555
O11_2 Eu1A 1_555 1_555
O11A_2 Eu1 1_555 1_555
O12A_2 Eu1A 1_555 1_555
O13A_2 Eu2A 1_555 1_555
O15A_2 Eu2A 1_555 1_555
C5 C15 1_555 1_555
C10 C13 1_555 1_555
C11 C25 1_555 1_555
C12 O15 1_555 1_555
C16 C35 1_555 1_555
C18 C29 1_555 1_555
C19 C26 1_555 1_555
C19 C29 1_555 1_555
C20 C21 1_555 1_555
C24 C27 1_555 1_555
C28 C34 1_555 1_555
C36 C22A 1_555 1_555
O12A Eu1A_4 1_555 1_555
C5A C33A 1_555 1_555
C7A C30A 1_555 1_555
C4A C36A 1_555 1_555
C31A C32A 1_555 1_555
O8A Eu1A_4 1_555 1_555
C2A O16A 1_555 1_555
C10A C13A 1_555 1_555
C11A C25A 1_555 1_555
C16A C35A 1_555 1_555
C18A C29A 1_555 1_555
C19A C26A 1_555 1_555
C19A C29A 1_555 1_555
C20A C21A 1_555 1_555
C24A C27A 1_555 1_555
C28A C34A 1_555 1_555

#END
