
#######################################################################
#
#                 Cambridge Crystallographic Data Centre
#                                CCDC 
#
#######################################################################
#
# If this CIF has been generated from an entry in the Cambridge 
# Structural Database, then it will include bibliographic, chemical, 
# crystal, experimental, refinement or atomic coordinate data resulting 
# from the CCDC's data processing and validation procedures.
#
#######################################################################

data_ACODAA
_symmetry_cell_setting           tetragonal
_symmetry_space_group_name_H-M   'P 42/m m c'
_symmetry_Int_Tables_number      131
_space_group_name_Hall           '-P 4c 2'
loop_
_symmetry_equiv_pos_site_id
_symmetry_equiv_pos_as_xyz
1 x,y,z
2 -x,-y,z
3 -y,x,1/2+z
4 y,-x,1/2+z
5 -x,y,-z
6 x,-y,-z
7 y,x,1/2-z
8 -y,-x,1/2-z
9 -x,-y,-z
10 x,y,-z
11 y,-x,1/2-z
12 -y,x,1/2-z
13 x,-y,z
14 -x,y,z
15 -y,-x,1/2+z
16 y,x,1/2+z
_cell_length_a                   9.205(2)
_cell_length_b                   9.205(2)
_cell_length_c                   7.2374(19)
_cell_angle_alpha                90
_cell_angle_beta                 90
_cell_angle_gamma                90
_cell_volume                     613.24
loop_
_atom_site_label
_atom_site_type_symbol
_atom_site_fract_x
_atom_site_fract_y
_atom_site_fract_z
Fe1 Fe 0.5000 0.5000 0.2500
N1 N 0.5000 0.6840(10) 0.4056(13)
C1 C 0.5000 0.918(2) 0.5000
C2 C 0.5000 0.8243(14) 0.352(2)
H1 H 0.5000 0.8547 0.2262
N1A N 0.5000 1.3160(10) 0.4056(13)
C1A C 0.5000 1.082(2) 0.5000
C2A C 0.5000 1.1757(14) 0.352(2)
H1A H 0.5000 1.1453 0.2262
N1D N 0.5000 0.6840(10) 0.5944(13)
C2D C 0.5000 0.8243(14) 0.648(2)
H1D H 0.5000 0.8547 0.7738
N1E N 0.5000 1.3160(10) 0.5944(13)
C2E C 0.5000 1.1757(14) 0.648(2)
H1E H 0.5000 1.1453 0.7738
Fe1_2 Fe 0.5000 1.5000 0.2500
Fe1B Fe 0.5000 0.5000 0.7500
Fe1B_2 Fe 0.5000 1.5000 0.7500
N1A_2 N 0.5000 0.3160(10) 0.4056(13)
N1F N 0.6840(10) 0.5000 0.0944(13)
N1G N 0.3160(10) 0.5000 0.0944(13)
loop_
_geom_bond_atom_site_label_1
_geom_bond_atom_site_label_2
_geom_bond_site_symmetry_1
_geom_bond_site_symmetry_2
Fe1 N1 1_555 1_555
N1 C2 1_555 1_555
C1 C2 1_555 1_555
C2 H1 1_555 1_555
N1A C2A 1_555 1_555
C1A C1 1_555 1_555
C2A C1A 1_555 1_555
H1A C2A 1_555 1_555
N1D N1 1_555 1_555
C2D C1 1_555 1_555
H1D C2D 1_555 1_555
N1E N1A 1_555 1_555
C2E C1A 1_555 1_555
H1E C2E 1_555 1_555
Fe1_2 N1A 1_555 1_555
Fe1B N1D 1_555 1_555
Fe1B_2 N1E 1_555 1_555
N1A_2 Fe1 1_555 1_555
N1F Fe1 1_555 1_555
N1G Fe1 1_555 1_555
N1D C2D 1_555 1_555
N1E C2E 1_555 1_555

#END
