
#######################################################################
#
#                 Cambridge Crystallographic Data Centre
#                                CCDC 
#
#######################################################################
#
# If this CIF has been generated from an entry in the Cambridge 
# Structural Database, then it will include bibliographic, chemical, 
# crystal, experimental, refinement or atomic coordinate data resulting 
# from the CCDC's data processing and validation procedures.
#
#######################################################################

data_ACODED
_symmetry_cell_setting           orthorhombic
_symmetry_space_group_name_H-M   'P b c n'
_symmetry_Int_Tables_number      60
_space_group_name_Hall           '-P 2n 2ab'
loop_
_symmetry_equiv_pos_site_id
_symmetry_equiv_pos_as_xyz
1 x,y,z
2 1/2-x,1/2-y,1/2+z
3 -x,y,1/2-z
4 1/2+x,1/2-y,-z
5 -x,-y,-z
6 1/2+x,1/2+y,1/2-z
7 x,-y,1/2+z
8 1/2-x,1/2+y,z
_cell_length_a                   16.0811(4)
_cell_length_b                   24.0918(6)
_cell_length_c                   14.2992(4)
_cell_angle_alpha                90
_cell_angle_beta                 90
_cell_angle_gamma                90
_cell_volume                     5539.83
loop_
_atom_site_label
_atom_site_type_symbol
_atom_site_fract_x
_atom_site_fract_y
_atom_site_fract_z
_atom_site_U_iso_or_equiv
_atom_site_thermal_displace_type
Cu1 Cu 0.439732(16) 0.647317(10) 0.811672(18) 0.0201 Uani
O1 O 0.33839(10) 0.64613(6) 0.90240(11) 0.0266 Uani
O2 O 0.04119(19) 0.47765(16) 0.6016(2) 0.0937 Uani
O3 O 0.0520(2) 0.56142(19) 0.5366(2) 0.1140 Uani
H1 H 0.0100 0.5525 0.5052 0.1710 Uiso
O4 O 0.11259(10) 0.80333(7) 1.21961(11) 0.0287 Uani
O5 O 0.40110(10) 0.41774(6) 1.23962(10) 0.0252 Uani
O6 O 0.48386(9) 0.40017(6) 1.11631(10) 0.0242 Uani
O7 O -0.00415(10) 0.78739(6) 1.13560(12) 0.0289 Uani
P1 P 0.26673(4) 0.61111(2) 0.93235(4) 0.0219 Uani
C1 C 0.20525(15) 0.58670(11) 0.83593(16) 0.0303 Uani
C2 C 0.16329(18) 0.53591(14) 0.8382(2) 0.0454 Uani
H2 H 0.1662 0.5134 0.8927 0.0550 Uiso
C3 C 0.11764(19) 0.51799(17) 0.7620(2) 0.0584 Uani
H3 H 0.0901 0.4831 0.7643 0.0700 Uiso
C4 C 0.1119(2) 0.54969(18) 0.6845(3) 0.0610 Uani
C5 C 0.1513(3) 0.60032(19) 0.6803(2) 0.0719 Uani
H4 H 0.1453 0.6227 0.6260 0.0860 Uiso
C6 C 0.2006(2) 0.61954(13) 0.7560(2) 0.0504 Uani
H5 H 0.2296 0.6538 0.7521 0.0600 Uiso
C7 C 0.0636(2) 0.5268(2) 0.5987(3) 0.0667 Uani
C8 C 0.20144(15) 0.65309(9) 1.00549(15) 0.0244 Uani
C9 C 0.11737(16) 0.66080(11) 0.9893(2) 0.0380 Uani
H6 H 0.0892 0.6389 0.9440 0.0460 Uiso
C10 C 0.24129(17) 0.68393(12) 1.07426(19) 0.0405 Uani
H7 H 0.2986 0.6777 1.0867 0.0490 Uiso
C11 C 0.30171(13) 0.55160(9) 0.99746(15) 0.0220 Uani
C12 C 0.36260(14) 0.51868(10) 0.95587(15) 0.0262 Uani
H8 H 0.3781 0.5250 0.8926 0.0310 Uiso
C13 C 0.19841(16) 0.72345(11) 1.12450(19) 0.0386 Uani
H9 H 0.2260 0.7443 1.1716 0.0460 Uiso
C14 C 0.11491(14) 0.73264(9) 1.10620(16) 0.0263 Uani
C15 C 0.07424(16) 0.70114(12) 1.0401(2) 0.0404 Uani
H10 H 0.0166 0.7069 1.0289 0.0480 Uiso
C16 C 0.07074(14) 0.77801(10) 1.15794(17) 0.0266 Uani
C17 C 0.27693(15) 0.54098(10) 1.08920(16) 0.0291 Uani
H11 H 0.2339 0.5624 1.1169 0.0350 Uiso
C18 C 0.31540(15) 0.49883(10) 1.14009(16) 0.0298 Uani
H12 H 0.2986 0.4915 1.2026 0.0360 Uiso
C19 C 0.37842(14) 0.46742(9) 1.09936(15) 0.0237 Uani
C20 C 0.40062(14) 0.47672(9) 1.00655(15) 0.0264 Uani
H13 H 0.4419 0.4543 0.9779 0.0320 Uiso
C21 C 0.42439(13) 0.42516(9) 1.15632(15) 0.0222 Uani
Cu1A Cu 0.060268(16) 0.852683(10) 1.311672(18) 0.0201 Uani
Cu1F Cu 0.439732(16) 0.352683(10) 1.311672(18) 0.0201 Uani
Cu1D Cu 0.560268(16) 0.352683(10) 1.188328(18) 0.0201 Uani
Cu1C Cu -0.060268(16) 0.852683(10) 1.188328(18) 0.0201 Uani
O4A O 0.38741(10) 0.69667(7) 0.71961(11) 0.0287 Uani
O5F O 0.40110(10) 0.58226(6) 0.73962(10) 0.0252 Uani
O6D O 0.51614(9) 0.59983(6) 0.88369(10) 0.0242 Uani
O7C O 0.49585(10) 0.71261(6) 0.86440(12) 0.0289 Uani
loop_
_atom_site_aniso_label
_atom_site_aniso_U_11
_atom_site_aniso_U_22
_atom_site_aniso_U_33
_atom_site_aniso_U_23
_atom_site_aniso_U_13
_atom_site_aniso_U_12
Cu1 0.02024(16) 0.01668(15) 0.02328(16) -0.00010(9) -0.00086(10) -0.00036(9)
O1 0.0287(8) 0.0205(8) 0.0307(8) -0.0010(6) 0.0060(7) 0.0016(6)
O2 0.080(2) 0.111(3) 0.090(2) -0.044(2) -0.0264(17) -0.0082(19)
O3 0.093(2) 0.184(4) 0.065(2) -0.030(2) -0.0367(17) 0.029(2)
O4 0.0287(8) 0.0261(8) 0.0313(8) -0.0092(7) 0.0027(7) -0.0009(7)
O5 0.0292(8) 0.0234(8) 0.0229(7) 0.0029(6) 0.0009(6) 0.0044(7)
O6 0.0244(8) 0.0238(7) 0.0245(7) 0.0004(6) 0.0010(6) 0.0042(6)
O7 0.0234(8) 0.0237(8) 0.0397(9) -0.0071(7) 0.0031(7) 0.0018(7)
P1 0.0232(3) 0.0204(3) 0.0221(3) -0.0017(2) 0.0009(2) 0.0044(2)
C1 0.0260(12) 0.0374(13) 0.0275(11) -0.0093(10) -0.0041(9) 0.0098(10)
C2 0.0352(15) 0.0577(18) 0.0433(15) -0.0160(14) 0.0004(12) -0.0068(13)
C3 0.0366(16) 0.085(3) 0.0536(19) -0.0282(18) -0.0052(14) -0.0062(16)
C4 0.0381(17) 0.085(3) 0.060(2) -0.0335(19) -0.0109(15) 0.0105(17)
C5 0.090(3) 0.093(3) 0.0326(16) -0.0018(17) -0.0190(17) 0.039(3)
C6 0.062(2) 0.0510(17) 0.0382(15) 0.0008(13) -0.0113(14) 0.0124(15)
C7 0.054(2) 0.078(3) 0.068(2) 0.001(2) -0.0065(18) 0.019(2)
C8 0.0284(11) 0.0198(10) 0.0249(10) -0.0012(8) 0.0038(9) 0.0043(9)
C9 0.0273(12) 0.0355(13) 0.0511(16) -0.0206(12) -0.0015(11) 0.0028(11)
C10 0.0309(13) 0.0475(16) 0.0432(14) -0.0208(12) -0.0059(11) 0.0123(12)
C11 0.0241(10) 0.0199(10) 0.0221(10) 0.0005(8) -0.0013(8) -0.0003(8)
C12 0.0288(12) 0.0279(11) 0.0218(10) 0.0000(9) 0.0033(9) 0.0046(9)
C13 0.0308(13) 0.0424(15) 0.0426(14) -0.0200(12) -0.0067(11) 0.0091(11)
C14 0.0259(11) 0.0252(11) 0.0278(11) -0.0032(9) 0.0019(9) 0.0043(9)
C15 0.0247(12) 0.0430(15) 0.0534(16) -0.0230(13) 0.0011(11) 0.0036(11)
C16 0.0280(12) 0.0219(11) 0.0299(11) -0.0024(9) 0.0031(9) -0.0010(9)
C17 0.0289(12) 0.0288(12) 0.0296(11) 0.0024(9) 0.0081(9) 0.0091(10)
C18 0.0326(12) 0.0319(12) 0.0249(11) 0.0036(9) 0.0063(9) 0.0076(10)
C19 0.0257(11) 0.0205(10) 0.0249(10) -0.0013(8) -0.0012(8) 0.0019(9)
C20 0.0262(11) 0.0268(11) 0.0262(11) -0.0002(9) 0.0028(9) 0.0054(9)
C21 0.0237(11) 0.0202(10) 0.0228(10) 0.0001(8) -0.0007(8) 0.0002(8)
Cu1A 0.02024 0.01668 0.02328 0.0001 0.00086 -0.00036
Cu1F 0.02024 0.01668 0.02328 0.0001 -0.00086 0.00036
Cu1D 0.02024 0.01668 0.02328 -0.0001 -0.00086 -0.00036
Cu1C 0.02024 0.01668 0.02328 -0.0001 0.00086 0.00036
O4A 0.0287 0.0261 0.0313 0.0092 -0.0027 -0.0009
O5F 0.0292 0.0234 0.0229 -0.0029 0.0009 -0.0044
O6D 0.0244 0.0238 0.0245 0.0004 0.001 0.0042
O7C 0.0234 0.0237 0.0397 -0.0071 -0.0031 -0.0018
loop_
_geom_bond_atom_site_label_1
_geom_bond_atom_site_label_2
_geom_bond_site_symmetry_1
_geom_bond_site_symmetry_2
Cu1 O1 1_555 1_555
O1 P1 1_555 1_555
O2 C7 1_555 1_555
O3 H1 1_555 1_555
O4 C16 1_555 1_555
O5 C21 1_555 1_555
O6 C21 1_555 1_555
O7 C16 1_555 1_555
P1 C1 1_555 1_555
C1 C2 1_555 1_555
C2 H2 1_555 1_555
C3 C2 1_555 1_555
H3 C3 1_555 1_555
C4 C3 1_555 1_555
C5 C4 1_555 1_555
H4 C5 1_555 1_555
C6 C1 1_555 1_555
H5 C6 1_555 1_555
C7 O3 1_555 1_555
C8 P1 1_555 1_555
C9 C8 1_555 1_555
H6 C9 1_555 1_555
C10 C8 1_555 1_555
H7 C10 1_555 1_555
C11 P1 1_555 1_555
C12 C11 1_555 1_555
H8 C12 1_555 1_555
C13 C10 1_555 1_555
H9 C13 1_555 1_555
C14 C13 1_555 1_555
C15 C9 1_555 1_555
H10 C15 1_555 1_555
C16 C14 1_555 1_555
C17 C11 1_555 1_555
H11 C17 1_555 1_555
C18 C17 1_555 1_555
H12 C18 1_555 1_555
C19 C18 1_555 1_555
C20 C12 1_555 1_555
H13 C20 1_555 1_555
C21 C19 1_555 1_555
Cu1A O4 1_555 1_555
Cu1F O5 1_555 1_555
Cu1D O6 1_555 1_555
Cu1C O7 1_555 1_555
O4A Cu1 1_555 1_555
O5F Cu1 1_555 1_555
O6D Cu1 1_555 1_555
O7C Cu1 1_555 1_555
C4 C7 1_555 1_555
C5 C6 1_555 1_555
C14 C15 1_555 1_555
C19 C20 1_555 1_555

#END
