
#######################################################################
#
#                 Cambridge Crystallographic Data Centre
#                                CCDC 
#
#######################################################################
#
# If this CIF has been generated from an entry in the Cambridge 
# Structural Database, then it will include bibliographic, chemical, 
# crystal, experimental, refinement or atomic coordinate data resulting 
# from the CCDC's data processing and validation procedures.
#
#######################################################################

data_ACODIH
_symmetry_cell_setting           rhombohedral
_symmetry_space_group_name_H-M   'R -3'
_symmetry_Int_Tables_number      148
_space_group_name_Hall           '-R 3'
loop_
_symmetry_equiv_pos_site_id
_symmetry_equiv_pos_as_xyz
1 x,y,z
2 -y,x-y,z
3 -x+y,-x,z
4 2/3+x,1/3+y,1/3+z
5 2/3-y,1/3+x-y,1/3+z
6 2/3-x+y,1/3-x,1/3+z
7 1/3+x,2/3+y,2/3+z
8 1/3-y,2/3+x-y,2/3+z
9 1/3-x+y,2/3-x,2/3+z
10 -x,-y,-z
11 y,-x+y,-z
12 x-y,x,-z
13 1/3-x,2/3-y,2/3-z
14 1/3+y,2/3-x+y,2/3-z
15 1/3+x-y,2/3+x,2/3-z
16 2/3-x,1/3-y,1/3-z
17 2/3+y,1/3-x+y,1/3-z
18 2/3+x-y,1/3+x,1/3-z
_cell_length_a                   34.340(3)
_cell_length_b                   34.340(3)
_cell_length_c                   19.451(2)
_cell_angle_alpha                90
_cell_angle_beta                 90
_cell_angle_gamma                120
_cell_volume                     19864.3
loop_
_atom_site_label
_atom_site_type_symbol
_atom_site_fract_x
_atom_site_fract_y
_atom_site_fract_z
Zn1 Zn 0.72831(2) 0.12767(2) 0.66024(3)
Zn2 Zn 0.51432(2) 0.00311(2) 1.07536(4)
Zn3 Zn 0.71566(4) 0.32589(4) 1.29541(6)
P1 P 0.62982(5) 0.07544(5) 1.07749(7)
P2 P 0.6667 0.3333 0.54562(16)
O1 O 0.58109(13) 0.04686(12) 1.06049(19)
O2 O 0.7001(2) 0.2694(2) 1.2501(3)
O3 O 0.6667 0.3333 1.3333
O4 O 0.7089(3) -0.0563(3) 1.1886(4)
O5 O 0.77474(15) 0.14200(16) 0.8118(2)
O6 O 0.70979(15) 0.11597(15) 0.7570(2)
O7 O 0.5004(3) 0.0306(3) 1.1561(4)
O8 O 0.7054(2) -0.0299(2) 1.2848(3)
O9 O 0.70923(15) 0.16911(15) 0.6273(2)
O10 O 0.76614(16) 0.22583(15) 0.6871(2)
O11 O 0.6667 0.3333 0.4648(4)
O12 O 0.79419(12) 0.16592(13) 0.66208(18)
H1 H 0.7985 0.1962 0.6739
C1 C 0.63977(19) 0.1243(2) 1.1242(3)
C2 C 0.6037(3) 0.1259(3) 1.1559(4)
H2 H 0.5739 0.1016 1.1504
C3 C 0.6113(3) 0.1618(3) 1.1940(5)
H3 H 0.5868 0.1618 1.2167
C4 C 0.6533(3) 0.1978(3) 1.2006(4)
C5 C 0.6881(3) 0.1981(3) 1.1688(4)
H4 H 0.7169 0.2242 1.1718
C6 C 0.6835(3) 0.1612(2) 1.1314(4)
H5 H 0.7088 0.1612 1.1118
C7 C 0.6569(4) 0.2366(4) 1.2403(6)
O13 O 0.6181(2) 0.2387(2) 1.2494(3)
C8 C 0.65196(19) 0.04696(19) 1.1274(3)
C9 C 0.6541(3) 0.0117(3) 1.0966(5)
H6 H 0.6433 0.0040 1.0508
C10 C 0.6699(3) -0.0116(3) 1.1260(6)
H7 H 0.6728 -0.0336 1.1007
C11 C 0.6818(2) -0.0043(2) 1.1907(5)
C12 C 0.6813(3) 0.0309(3) 1.2278(4)
H8 H 0.6911 0.0370 1.2743
C13 C 0.6653(2) 0.0569(3) 1.1926(3)
H9 H 0.6643 0.0809 1.2153
C14 C 0.7004(3) -0.0313(3) 1.2283(7)
C15 C 0.66267(18) 0.0931(2) 0.9993(3)
C16 C 0.6400(2) 0.0913(2) 0.9395(3)
H10 H 0.6090 0.0825 0.9407
C17 C 0.7082(2) 0.1068(2) 0.9976(3)
H11 H 0.7235 0.1087 1.0392
C18 C 0.6635(2) 0.1027(2) 0.8776(3)
H12 H 0.6486 0.1018 0.8360
C19 C 0.7087(2) 0.1152(2) 0.8767(3)
C20 C 0.7315(2) 0.1179(2) 0.9362(3)
H13 H 0.7626 0.1271 0.9351
C21 C 0.7338(2) 0.1256(3) 0.8091(3)
C22 C 0.6866(2) 0.2985(2) 0.5801(3)
C23 C 0.6675(3) 0.2544(2) 0.5540(4)
H14 H 0.6452 0.2446 0.5191
C24 C 0.6811(2) 0.2252(2) 0.5787(4)
H15 H 0.6671 0.1950 0.5627
C25 C 0.7154(2) 0.2405(2) 0.6270(3)
C26 C 0.7335(2) 0.2825(2) 0.6537(3)
H16 H 0.7558 0.2922 0.6885
C27 C 0.7188(2) 0.3114(2) 0.6294(4)
H17 H 0.7318 0.3409 0.6478
C28 C 0.7315(2) 0.2100(2) 0.6495(3)
Zn1D Zn 0.53900(2) -0.06603(3) -0.00643(3)
Zn1H Zn 0.73269(3) -0.06164(2) 1.32691(3)
Zn1A Zn 0.87233(2) 0.60064(3) 0.66024(3)
Zn1B Zn 0.39936(3) 0.27169(2) 0.66024(3)
Zn1D_2 Zn 0.53900(2) -0.06603(3) 0.99357(3)
Zn1_2 Zn 0.72831(2) 0.12767(2) 1.66024(3)
Zn1M Zn 0.46100(2) 0.06603(3) 1.00643(3)
Zn1F Zn 1.06164(2) 0.79434(2) 1.32691(3)
Zn1H_2 Zn 0.73269(3) -0.06164(2) -0.67309(3)
Zn1E Zn 0.06603(3) -0.39498(2) -0.00643(3)
Zn1C Zn 0.39498(2) -0.53900(2) -0.00643(3)
Zn1D_3 Zn 0.53900(2) -0.06603(3) 1.99357(3)
Zn2D Zn 0.66356(2) -0.15546(3) 0.40869(4)
Zn2H Zn 0.82212(3) 0.15235(2) 0.74203(4)
Zn2_2 Zn 0.51432(2) 0.00311(2) 0.07536(4)
Zn2N Zn 0.84454(3) 0.18099(2) 0.59131(4)
Zn2D_2 Zn 0.66356(2) -0.15546(3) 1.40869(4)
Zn2I Zn 0.48568(2) -0.00311(2) 0.92464(4)
Zn2A Zn 0.99689(2) 0.51121(3) 1.07536(4)
Zn2F Zn 0.84765(2) 0.66978(2) 0.74203(4)
Zn2H_2 Zn 0.82212(3) 0.15235(2) -0.25797(4)
Zn2D_3 Zn 0.66356(2) -0.15546(3) -0.59131(4)
Zn2I_2 Zn 0.48568(2) -0.00311(2) -0.07536(4)
Zn2H_3 Zn 0.82212(3) 0.15235(2) 1.74203(4)
Zn2P Zn 0.66978(2) -0.17788(3) 1.25797(4)
Zn2L Zn 0.81901(2) 0.66356(2) 0.59131(4)
Zn3D Zn 0.34078(4) -0.27690(6) 0.62874(6)
Zn3B Zn 0.61023(6) 0.28434(4) 1.29541(6)
Zn3C Zn 0.38233(4) -0.34078(4) 0.62874(6)
Zn3D_2 Zn 0.34078(4) -0.27690(6) 1.62874(6)
Zn3A Zn 0.67411(4) 0.38977(6) 1.29541(6)
Zn3L Zn 0.61767(4) 0.34078(4) 1.37126(6)
Zn3N Zn 0.72310(6) 0.38233(4) 1.37126(6)
Zn3M Zn 0.65922(4) 0.27690(6) 1.37126(6)
Zn3C_2 Zn 0.38233(4) -0.34078(4) 1.62874(6)
Zn3H Zn 0.94356(6) -0.04899(4) -0.03792(6)
Zn3G Zn 1.00744(4) 0.05644(6) -0.03792(6)
Zn3H_2 Zn 0.94356(6) -0.04899(4) 1.96208(6)
Zn3G_2 Zn 1.00744(4) 0.05644(6) 1.96208(6)
P1D P 0.59123(5) -0.11229(7) 0.41082(7)
P1D_2 P 0.59123(5) -0.11229(7) 1.41082(7)
P1A P 0.92456(5) 0.55438(7) 1.07749(7)
P1H P 0.77895(7) 0.03685(5) -0.25584(7)
P1H_2 P 0.77895(7) 0.03685(5) 1.74416(7)
P2D P 0.3334 -0.3333 -0.12105(16)
O1D O 0.61981(12) -0.13244(18) 0.39382(19)
O1D_2 O 0.61981(12) -0.13244(18) 1.39382(19)
O1A O 0.95314(12) 0.53423(18) 1.06049(19)
O1H O 0.79910(18) 0.08558(13) -0.27284(19)
O1H_2 O 0.79910(18) 0.08558(13) 1.72716(19)
O1H_3 O 0.79910(18) 0.08558(13) 0.72716(19)
O1_2 O 0.58109(13) 0.04686(12) 0.06049(19)
O1N O 0.86756(18) 0.24776(13) 0.60618(19)
O2D O 0.3973(2) -0.2360(3) 0.5834(3)
O2D_2 O 0.3973(2) -0.2360(3) 1.5834(3)
O2A O 0.7306(2) 0.4307(3) 1.2501(3)
O2H O 0.9026(3) -0.0334(2) -0.0832(3)
O2H_2 O 0.9026(3) -0.0334(2) 1.9168(3)
O2B O 0.5693(3) 0.2999(2) 1.2501(3)
O2C O 0.3668(2) -0.3973(2) 0.5834(3)
O3D O 0.3334 -0.3333 0.6666
O3D_2 O 0.3334 -0.3333 1.6666
O4D O 0.7230(3) 0.0985(4) 0.5219(4)
O4D_2 O 0.7230(3) 0.0985(4) 1.5219(4)
O4A O 1.0563(3) 0.7652(4) 1.1886(4)
O4H O 0.5681(4) -0.0422(3) -0.1447(4)
O4H_2 O 0.5681(4) -0.0422(3) 1.8553(4)
O5D O 0.52467(16) -0.03393(22) 0.1451(2)
O5D_2 O 0.52467(16) -0.03393(22) 1.1451(2)
O5A O 0.85800(16) 0.63274(22) 0.8118(2)
O5H O 0.70059(22) -0.10807(15) -0.5215(2)
O5H_2 O 0.70059(22) -0.10807(15) 1.4785(2)
O5H_3 O 0.70059(22) -0.10807(15) 0.4785(2)
O5O O 0.89193(15) 0.19133(16) 0.5215(2)
O6D O 0.55070(15) -0.07285(21) 0.0903(2)
O6D_2 O 0.55070(15) -0.07285(21) 1.0903(2)
O6A O 0.88403(15) 0.59382(21) 0.7570(2)
O6H O 0.73951(21) -0.04312(15) -0.5763(2)
O6H_2 O 0.73951(21) -0.04312(15) 1.4237(2)
O6B O 0.40618(21) 0.29021(15) 0.7570(2)
O7D O 0.6361(3) -0.1969(4) 0.4894(4)
O7H O 0.8635(4) 0.1663(3) 0.8228(4)
O7_2 O 0.5004(3) 0.0306(3) 0.1561(4)
O7N O 0.8031(4) 0.1671(3) 0.5106(4)
O7D_2 O 0.6361(3) -0.1969(4) 1.4894(4)
O8D O 0.6966(2) 0.0686(3) 0.6181(3)
O8D_2 O 0.6966(2) 0.0686(3) 1.6181(3)
O8A O 1.0299(2) 0.7353(3) 1.2848(3)
O8H O 0.5980(3) -0.0387(2) -0.0485(3)
O8H_2 O 0.5980(3) -0.0387(2) 1.9515(3)
O8E O 0.9314(3) 0.6279(2) 0.6181(3)
O8C O 0.3721(2) 0.3034(2) 0.6181(3)
O8H_3 O 0.5980(3) -0.0387(2) 0.9515(3)
O9A O 0.83089(15) 0.54012(21) 0.6273(2)
O9B O 0.45988(21) 0.29077(15) 0.6273(2)
O9D O 0.49756(15) -0.12655(21) -0.0394(2)
O9E O 0.12655(21) -0.37590(15) -0.0394(2)
O9C O 0.37590(15) -0.49756(15) -0.0394(2)
O9H O 0.79321(21) -0.04256(15) 1.2940(2)
O9D_2 O 0.49756(15) -0.12655(21) 0.9606(2)
O10A O 0.77417(15) 0.54031(22) 0.6871(2)
O10B O 0.45969(22) 0.23386(16) 0.6871(2)
O10D O 0.44084(15) -0.12636(22) 0.0204(2)
O10E O 0.12636(22) -0.43281(16) 0.0204(2)
O10C O 0.43281(16) -0.44084(15) 0.0204(2)
O11D O 0.3334 -0.3333 -0.2019(4)
O12M O 0.49925(13) 0.03840(18) 1.00459(18)
O12D O 0.50075(13) -0.03840(18) 0.99541(18)
O12D_2 O 0.50075(13) -0.03840(18) -0.00459(18)
O12H O 0.70506(18) -0.12752(12) 1.32875(18)
O12A O 0.83408(13) 0.62827(18) 0.66208(18)
O12B O 0.37173(18) 0.20581(12) 0.66208(18)
O12K O 0.62827(18) -0.20581(12) 0.33792(18)
O12H_2 O 0.70506(18) -0.12752(12) 0.32875(18)
O12O O 0.87248(12) 0.16741(13) 0.67125(18)
O12M_2 O 0.49925(13) 0.03840(18) 0.00459(18)
O12K_2 O 0.62827(18) -0.20581(12) 1.33792(18)
H1M H 0.5295 0.0644 0.9928
H1D H 0.4705 -0.0644 1.0072
H1D_2 H 0.4705 -0.0644 0.0072
H1H H 0.7310 -0.1318 1.3406
H1A H 0.8038 0.6023 0.6739
H1B H 0.3977 0.2015 0.6739
H1K H 0.6023 -0.2015 0.3261
H1H_2 H 0.7310 -0.1318 0.3406
H1O H 0.8682 0.1371 0.6594
H1M_2 H 0.5295 0.0644 -0.0072
H1K_2 H 0.6023 -0.2015 1.3261
C1D C 0.5424(2) -0.15120(28) 0.4575(3)
C1D_2 C 0.5424(2) -0.15120(28) 1.4575(3)
C1A C 0.8757(2) 0.51547(28) 1.1242(3)
C1H C 0.81786(28) 0.02690(19) -0.2091(3)
C1H_2 C 0.81786(28) 0.02690(19) 1.7909(3)
C2D C 0.5408(3) -0.1889(4) 0.4892(4)
C2D_2 C 0.5408(3) -0.1889(4) 1.4892(4)
C2A C 0.8741(3) 0.4778(4) 1.1559(4)
C2H C 0.8555(4) 0.0630(3) -0.1774(4)
C2H_2 C 0.8555(4) 0.0630(3) 1.8226(4)
H2D H 0.5651 -0.1944 0.4837
H2D_2 H 0.5651 -0.1944 1.4837
H2A H 0.8984 0.4723 1.1504
H2H H 0.8610 0.0928 -0.1829
H2H_2 H 0.8610 0.0928 1.8171
C3D C 0.5049(3) -0.2172(4) 0.5273(5)
C3D_2 C 0.5049(3) -0.2172(4) 1.5273(5)
C3A C 0.8382(3) 0.4495(4) 1.1940(5)
C3H C 0.8838(4) 0.0554(3) -0.1393(5)
C3H_2 C 0.8838(4) 0.0554(3) 1.8607(5)
H3D H 0.5049 -0.2417 0.5500
H3D_2 H 0.5049 -0.2417 1.5500
H3A H 0.8382 0.4250 1.2167
H3H H 0.9083 0.0799 -0.1166
H3H_2 H 0.9083 0.0799 1.8834
C4D C 0.4689(3) -0.2112(4) 0.5339(4)
C4D_2 C 0.4689(3) -0.2112(4) 1.5339(4)
C4A C 0.8022(3) 0.4555(4) 1.2006(4)
C4H C 0.8778(4) 0.0134(3) -0.1327(4)
C4H_2 C 0.8778(4) 0.0134(3) 1.8673(4)
C5D C 0.4686(3) -0.1767(4) 0.5021(4)
C5D_2 C 0.4686(3) -0.1767(4) 1.5021(4)
C5A C 0.8019(3) 0.4900(4) 1.1688(4)
C5H C 0.8433(4) -0.0214(3) -0.1645(4)
C5H_2 C 0.8433(4) -0.0214(3) 1.8355(4)
H4D H 0.4425 -0.1740 0.5051
H4D_2 H 0.4425 -0.1740 1.5051
H4A H 0.7758 0.4927 1.1718
H4H H 0.8406 -0.0502 -0.1615
H4H_2 H 0.8406 -0.0502 1.8385
C6D C 0.5055(2) -0.1444(4) 0.4647(4)
C6D_2 C 0.5055(2) -0.1444(4) 1.4647(4)
C6A C 0.8388(2) 0.5223(4) 1.1314(4)
C6H C 0.8110(4) -0.0168(3) -0.2019(4)
C6H_2 C 0.8110(4) -0.0168(3) 1.7981(4)
H5D H 0.5055 -0.1191 0.4451
H5D_2 H 0.5055 -0.1191 1.4451
H5A H 0.8388 0.5476 1.1118
H5H H 0.7857 -0.0421 -0.2215
H5H_2 H 0.7857 -0.0421 1.7785
C7D C 0.4301(4) -0.2464(6) 0.5736(6)
C7D_2 C 0.4301(4) -0.2464(6) 1.5736(6)
C7A C 0.7634(4) 0.4203(6) 1.2403(6)
C7H C 0.9130(6) 0.0098(4) -0.0930(6)
C7H_2 C 0.9130(6) 0.0098(4) 1.9070(6)
O13D O 0.4280(2) -0.2873(3) 0.5827(3)
O13D_2 O 0.4280(2) -0.2873(3) 1.5827(3)
O13A O 0.7613(2) 0.3794(3) 1.2494(3)
O13H O 0.9539(3) 0.0486(2) -0.0839(3)
O13H_2 O 0.9539(3) 0.0486(2) 1.9161(3)
O13E O 0.2873(3) -0.2848(2) 0.5827(3)
O13E_2 O 0.2873(3) -0.2848(2) 1.5827(3)
O13B O 0.6206(3) 0.3819(2) 1.2494(3)
C8D C 0.61971(19) -0.06167(27) 0.4607(3)
C8D_2 C 0.61971(19) -0.06167(27) 1.4607(3)
C8A C 0.95304(19) 0.60500(27) 1.1274(3)
C8H C 0.72833(27) 0.01471(19) -0.2059(3)
C8H_2 C 0.72833(27) 0.01471(19) 1.7941(3)
C9D C 0.6550(3) -0.0243(4) 0.4299(5)
C9D_2 C 0.6550(3) -0.0243(4) 1.4299(5)
C9A C 0.9883(3) 0.6424(4) 1.0966(5)
C9H C 0.6909(4) 0.0126(3) -0.2367(5)
C9H_2 C 0.6909(4) 0.0126(3) 1.7633(5)
H6D H 0.6627 -0.0274 0.3841
H6D_2 H 0.6627 -0.0274 1.3841
H6A H 0.9960 0.6393 1.0508
H6H H 0.6940 0.0234 -0.2825
H6H_2 H 0.6940 0.0234 1.7175
C10D C 0.6783(3) 0.0148(4) 0.4593(6)
C10D_2 C 0.6783(3) 0.0148(4) 1.4593(6)
C10A C 1.0116(3) 0.6815(4) 1.1260(6)
C10H C 0.6518(4) -0.0032(3) -0.2073(6)
C10H_2 C 0.6518(4) -0.0032(3) 1.7927(6)
H7D H 0.7003 0.0397 0.4340
H7D_2 H 0.7003 0.0397 1.4340
H7A H 1.0336 0.7064 1.1007
H7H H 0.6269 -0.0061 -0.2326
H7H_2 H 0.6269 -0.0061 1.7674
C11D C 0.6710(2) 0.0194(3) 0.5240(5)
C11D_2 C 0.6710(2) 0.0194(3) 1.5240(5)
C11A C 1.0043(2) 0.6861(3) 1.1907(5)
C11H C 0.6472(3) -0.0151(2) -0.1426(5)
C11H_2 C 0.6472(3) -0.0151(2) 1.8574(5)
C12D C 0.6358(3) -0.0163(4) 0.5611(4)
C12D_2 C 0.6358(3) -0.0163(4) 1.5611(4)
C12A C 0.9691(3) 0.6504(4) 1.2278(4)
C12H C 0.6829(4) -0.0146(3) -0.1055(4)
C12H_2 C 0.6829(4) -0.0146(3) 1.8945(4)
H8D H 0.6297 -0.0126 0.6076
H8D_2 H 0.6297 -0.0126 1.6076
H8A H 0.9630 0.6541 1.2743
H8H H 0.6792 -0.0244 -0.0590
H8H_2 H 0.6792 -0.0244 1.9410
C13D C 0.6098(3) -0.0583(4) 0.5259(3)
C13D_2 C 0.6098(3) -0.0583(4) 1.5259(3)
C13A C 0.9431(3) 0.6084(4) 1.1926(3)
C13H C 0.7249(4) 0.0014(2) -0.1407(3)
C13H_2 C 0.7249(4) 0.0014(2) 1.8593(3)
H9D H 0.5858 -0.0833 0.5486
H9D_2 H 0.5858 -0.0833 1.5486
H9A H 0.9191 0.5834 1.2153
H9H H 0.7499 0.0024 -0.1180
H9H_2 H 0.7499 0.0024 1.8820
C14D C 0.6980(3) 0.0650(4) 0.5616(7)
C14D_2 C 0.6980(3) 0.0650(4) 1.5616(7)
C14A C 1.0313(3) 0.7317(4) 1.2283(7)
C14H C 0.6016(4) -0.0337(3) -0.1050(7)
C14H_2 C 0.6016(4) -0.0337(3) 1.8950(7)
C15D C 0.5736(2) -0.09710(27) 0.3326(3)
C15D_2 C 0.5736(2) -0.09710(27) 1.3326(3)
C15A C 0.9069(2) 0.56957(27) 0.9993(3)
C15H C 0.76376(27) 0.00400(18) -0.3340(3)
C15H_2 C 0.76376(27) 0.00400(18) 1.6660(3)
C16D C 0.5754(2) -0.1180(3) 0.2728(3)
C16D_2 C 0.5754(2) -0.1180(3) 1.2728(3)
C16A C 0.9087(2) 0.5487(3) 0.9395(3)
C16H C 0.7846(3) 0.0267(2) -0.3938(3)
C16H_2 C 0.7846(3) 0.0267(2) 1.6062(3)
H10D H 0.5842 -0.1402 0.2740
H10D_2 H 0.5842 -0.1402 1.2740
H10A H 0.9175 0.5265 0.9407
H10H H 0.8068 0.0577 -0.3926
H10H_2 H 0.8068 0.0577 1.6074
C17D C 0.5599(2) -0.0653(3) 0.3309(3)
C17D_2 C 0.5599(2) -0.0653(3) 1.3309(3)
C17A C 0.8932(2) 0.6014(3) 0.9976(3)
C17H C 0.7319(3) -0.0415(2) -0.3357(3)
C17H_2 C 0.7319(3) -0.0415(2) 1.6643(3)
H11D H 0.5580 -0.0519 0.3725
H11D_2 H 0.5580 -0.0519 1.3725
H11A H 0.8913 0.6148 1.0392
H11H H 0.7185 -0.0568 -0.2941
H11H_2 H 0.7185 -0.0568 1.7059
C18D C 0.5640(2) -0.1059(3) 0.2109(3)
C18D_2 C 0.5640(2) -0.1059(3) 1.2109(3)
C18A C 0.8973(2) 0.5608(3) 0.8776(3)
C18H C 0.7725(3) 0.0032(2) -0.4557(3)
C18H_2 C 0.7725(3) 0.0032(2) 1.5443(3)
H12D H 0.5649 -0.1199 0.1693
H12D_2 H 0.5649 -0.1199 1.1693
H12A H 0.8982 0.5468 0.8360
H12H H 0.7865 0.0181 -0.4973
H12H_2 H 0.7865 0.0181 1.5027
C19D C 0.5515(2) -0.0732(3) 0.2100(3)
C19D_2 C 0.5515(2) -0.0732(3) 1.2100(3)
C19A C 0.8848(2) 0.5935(3) 0.8767(3)
C19H C 0.7398(3) -0.0420(2) -0.4566(3)
C19H_2 C 0.7398(3) -0.0420(2) 1.5434(3)
C20D C 0.5488(2) -0.0531(3) 0.2695(3)
C20D_2 C 0.5488(2) -0.0531(3) 1.2695(3)
C20A C 0.8821(2) 0.6136(3) 0.9362(3)
C20H C 0.7197(3) -0.0648(2) -0.3971(3)
C20H_2 C 0.7197(3) -0.0648(2) 1.6029(3)
H13D H 0.5396 -0.0312 0.2684
H13D_2 H 0.5396 -0.0312 1.2684
H13A H 0.8729 0.6355 0.9351
H13H H 0.6978 -0.0959 -0.3982
H13H_2 H 0.6978 -0.0959 1.6018
C21D C 0.5411(3) -0.0585(4) 0.1424(3)
C21D_2 C 0.5411(3) -0.0585(4) 1.1424(3)
C21A C 0.8744(3) 0.6082(4) 0.8091(3)
C21H C 0.7251(4) -0.0671(2) -0.5242(3)
C21H_2 C 0.7251(4) -0.0671(2) 1.4758(3)
C22A C 0.7015(2) 0.3881(3) 0.5801(3)
C22B C 0.6119(3) 0.3134(2) 0.5801(3)
C22D C 0.3682(2) -0.2786(3) -0.0866(3)
C22E C 0.2786(3) -0.3533(2) -0.0866(3)
C22C C 0.3533(2) -0.3682(2) -0.0866(3)
C23A C 0.7456(2) 0.4131(4) 0.5540(4)
C23B C 0.5869(4) 0.3325(3) 0.5540(4)
C23D C 0.4123(2) -0.2536(4) -0.1127(4)
C23E C 0.2536(4) -0.3342(3) -0.1127(4)
C23C C 0.3342(3) -0.4123(2) -0.1127(4)
H14A H 0.7554 0.4006 0.5191
H14B H 0.5994 0.3548 0.5191
H14D H 0.4221 -0.2661 -0.1476
H14E H 0.2661 -0.3119 -0.1476
H14C H 0.3119 -0.4221 -0.1476
C24A C 0.7748(2) 0.4559(3) 0.5787(4)
C24B C 0.5441(3) 0.3189(2) 0.5787(4)
C24D C 0.4415(2) -0.2108(3) -0.0880(4)
C24E C 0.2108(3) -0.3478(2) -0.0880(4)
C24C C 0.3478(2) -0.4415(2) -0.0880(4)
H15A H 0.8050 0.4721 0.5627
H15B H 0.5279 0.3329 0.5627
H15D H 0.4717 -0.1946 -0.1040
H15E H 0.1946 -0.3338 -0.1040
H15C H 0.3338 -0.4717 -0.1040
C25A C 0.7595(2) 0.4749(3) 0.6270(3)
C25B C 0.5251(3) 0.2846(2) 0.6270(3)
C25D C 0.4262(2) -0.1918(3) -0.0397(3)
C25E C 0.1918(3) -0.3821(2) -0.0397(3)
C25C C 0.3821(2) -0.4262(2) -0.0397(3)
C26A C 0.7175(2) 0.4510(3) 0.6537(3)
C26B C 0.5490(3) 0.2665(2) 0.6537(3)
C26D C 0.3842(2) -0.2157(3) -0.0130(3)
C26E C 0.2157(3) -0.4002(2) -0.0130(3)
C26C C 0.4002(2) -0.3842(2) -0.0130(3)
H16A H 0.7078 0.4636 0.6885
H16B H 0.5364 0.2442 0.6885
H16D H 0.3745 -0.2031 0.0218
H16E H 0.2031 -0.4225 0.0218
H16C H 0.4225 -0.3745 0.0218
C27A C 0.6886(2) 0.4074(3) 0.6294(4)
C27B C 0.5926(3) 0.2812(2) 0.6294(4)
C27D C 0.3553(2) -0.2593(3) -0.0373(4)
C27E C 0.2593(3) -0.3855(2) -0.0373(4)
C27C C 0.3855(2) -0.3553(2) -0.0373(4)
H17A H 0.6591 0.3909 0.6478
H17B H 0.6091 0.2682 0.6478
H17D H 0.3258 -0.2758 -0.0189
H17E H 0.2758 -0.3985 -0.0189
H17C H 0.3985 -0.3258 -0.0189
C28A C 0.7900(2) 0.5215(3) 0.6495(3)
C28B C 0.4785(3) 0.2685(2) 0.6495(3)
C28D C 0.4567(2) -0.1452(3) -0.0172(3)
C28E C 0.1452(3) -0.3982(2) -0.0172(3)
C28C C 0.3982(2) -0.4567(2) -0.0172(3)
O14? O 0.9221(3) 0.0239(3) 0.9683(5)
O15? O 0.8613(5) 0.2012(5) 0.8007(7)
loop_
_geom_bond_atom_site_label_1
_geom_bond_atom_site_label_2
_geom_bond_site_symmetry_1
_geom_bond_site_symmetry_2
Zn1 O6 1_555 1_555
Zn2 O1 1_555 1_555
Zn3 O2 1_555 1_555
P1 O1 1_555 1_555
P2 O11 1_555 1_555
O2 C7 1_555 1_555
O3 Zn3 1_555 1_555
O4 C14 1_555 1_555
O5 C21 1_555 1_555
O6 C21 1_555 1_555
O7 Zn2 1_555 1_555
O8 C14 1_555 1_555
O9 Zn1 1_555 1_555
O10 C28 1_555 1_555
O12 Zn1 1_555 1_555
H1 O12 1_555 1_555
C1 P1 1_555 1_555
C2 C1 1_555 1_555
H2 C2 1_555 1_555
C3 C2 1_555 1_555
H3 C3 1_555 1_555
C4 C3 1_555 1_555
C5 C4 1_555 1_555
H4 C5 1_555 1_555
C6 C1 1_555 1_555
H5 C6 1_555 1_555
C7 C4 1_555 1_555
O13 C7 1_555 1_555
C8 P1 1_555 1_555
C9 C8 1_555 1_555
H6 C9 1_555 1_555
C10 C9 1_555 1_555
H7 C10 1_555 1_555
C11 C10 1_555 1_555
C12 C11 1_555 1_555
H8 C12 1_555 1_555
C13 C8 1_555 1_555
H9 C13 1_555 1_555
C14 C11 1_555 1_555
C15 P1 1_555 1_555
C16 C15 1_555 1_555
H10 C16 1_555 1_555
C17 C15 1_555 1_555
H11 C17 1_555 1_555
C18 C16 1_555 1_555
H12 C18 1_555 1_555
C19 C18 1_555 1_555
C20 C17 1_555 1_555
H13 C20 1_555 1_555
C21 C19 1_555 1_555
C22 P2 1_555 1_555
C23 C22 1_555 1_555
H14 C23 1_555 1_555
C24 C23 1_555 1_555
H15 C24 1_555 1_555
C25 C24 1_555 1_555
C26 C25 1_555 1_555
H16 C26 1_555 1_555
C27 C22 1_555 1_555
H17 C27 1_555 1_555
C28 O9 1_555 1_555
Zn1D O6D 1_555 1_555
Zn1H O8 1_555 1_555
Zn1A O6A 1_555 1_555
Zn1B O6B 1_555 1_555
Zn1D_2 O6D_2 1_555 1_555
Zn1_2 O8D_2 1_555 1_555
Zn1M O12M 1_555 1_555
Zn1F O8A 1_555 1_555
Zn1H_2 O6H 1_555 1_555
Zn1E O9E 1_555 1_555
Zn1C O9C 1_555 1_555
Zn1D_3 O8H_2 1_555 1_555
Zn2D O1D 1_555 1_555
Zn2H O5 1_555 1_555
Zn2_2 O1_2 1_555 1_555
Zn2N O12 1_555 1_555
Zn2D_2 O1D_2 1_555 1_555
Zn2I O12M 1_555 1_555
Zn2A O1A 1_555 1_555
Zn2F O5A 1_555 1_555
Zn2H_2 O1H 1_555 1_555
Zn2D_3 O5H 1_555 1_555
Zn2I_2 O12D_2 1_555 1_555
Zn2H_3 O1H_2 1_555 1_555
Zn2P O12H 1_555 1_555
Zn2L O12A 1_555 1_555
Zn3D O2D 1_555 1_555
Zn3B O3 1_555 1_555
Zn3C O2C 1_555 1_555
Zn3D_2 O2D_2 1_555 1_555
Zn3A O3 1_555 1_555
Zn3L O3 1_555 1_555
Zn3N O3 1_555 1_555
Zn3M O3 1_555 1_555
Zn3C_2 O3D_2 1_555 1_555
Zn3H O2H 1_555 1_555
Zn3G O13H 1_555 1_555
Zn3H_2 O2H_2 1_555 1_555
Zn3G_2 O13H_2 1_555 1_555
P1D O1D 1_555 1_555
P1D_2 O1D_2 1_555 1_555
P1A O1A 1_555 1_555
P1H O1H 1_555 1_555
P1H_2 O1H_2 1_555 1_555
P2D O11D 1_555 1_555
O1H_3 Zn2H 1_555 1_555
O1N Zn2N 1_555 1_555
O2D C7D 1_555 1_555
O2D_2 C7D_2 1_555 1_555
O2A Zn3A 1_555 1_555
O2H C7H 1_555 1_555
O2H_2 C7H_2 1_555 1_555
O2B Zn3B 1_555 1_555
O3D Zn3D 1_555 1_555
O3D_2 Zn3D_2 1_555 1_555
O4D C14D 1_555 1_555
O4D_2 C14D_2 1_555 1_555
O4A C14A 1_555 1_555
O4H C14H 1_555 1_555
O4H_2 C14H_2 1_555 1_555
O5D Zn2_2 1_555 1_555
O5D_2 Zn2 1_555 1_555
O5A C21A 1_555 1_555
O5H C21H 1_555 1_555
O5H_2 Zn2D_2 1_555 1_555
O5H_3 Zn2D 1_555 1_555
O5O Zn2N 1_555 1_555
O6D C21D 1_555 1_555
O6D_2 C21D_2 1_555 1_555
O6A C21A 1_555 1_555
O6H C21H 1_555 1_555
O6H_2 Zn1H 1_555 1_555
O7D Zn2D 1_555 1_555
O7H Zn2H 1_555 1_555
O7_2 Zn2_2 1_555 1_555
O7N Zn2N 1_555 1_555
O7D_2 Zn2D_2 1_555 1_555
O8D Zn1 1_555 1_555
O8D_2 C14D_2 1_555 1_555
O8A C14A 1_555 1_555
O8H Zn1D 1_555 1_555
O8H_2 C14H_2 1_555 1_555
O8E Zn1A 1_555 1_555
O8C Zn1B 1_555 1_555
O8H_3 Zn1D_2 1_555 1_555
O9A Zn1A 1_555 1_555
O9B Zn1B 1_555 1_555
O9D Zn1D 1_555 1_555
O9E C28E 1_555 1_555
O9C C28C 1_555 1_555
O9H Zn1H 1_555 1_555
O9D_2 Zn1D_2 1_555 1_555
O10A C28A 1_555 1_555
O10B C28B 1_555 1_555
O10D C28D 1_555 1_555
O10E C28E 1_555 1_555
O10C C28C 1_555 1_555
O12M Zn2 1_555 1_555
O12D Zn2 1_555 1_555
O12D_2 Zn1D 1_555 1_555
O12H Zn1H 1_555 1_555
O12A Zn1A 1_555 1_555
O12B Zn1B 1_555 1_555
O12K Zn2D 1_555 1_555
O12H_2 Zn2D 1_555 1_555
O12O Zn2H 1_555 1_555
O12M_2 Zn2_2 1_555 1_555
O12K_2 Zn2D_2 1_555 1_555
H1M O12M 1_555 1_555
H1D O12D 1_555 1_555
H1D_2 O12D_2 1_555 1_555
H1H O12H 1_555 1_555
H1A O12A 1_555 1_555
H1B O12B 1_555 1_555
H1K O12K 1_555 1_555
H1H_2 O12H_2 1_555 1_555
H1O O12O 1_555 1_555
H1M_2 O12M_2 1_555 1_555
H1K_2 O12K_2 1_555 1_555
C1D P1D 1_555 1_555
C1D_2 P1D_2 1_555 1_555
C1A P1A 1_555 1_555
C1H P1H 1_555 1_555
C1H_2 P1H_2 1_555 1_555
C2D C1D 1_555 1_555
C2D_2 C1D_2 1_555 1_555
C2A C1A 1_555 1_555
C2H C1H 1_555 1_555
C2H_2 C1H_2 1_555 1_555
H2D C2D 1_555 1_555
H2D_2 C2D_2 1_555 1_555
H2A C2A 1_555 1_555
H2H C2H 1_555 1_555
H2H_2 C2H_2 1_555 1_555
C3D C2D 1_555 1_555
C3D_2 C2D_2 1_555 1_555
C3A C2A 1_555 1_555
C3H C2H 1_555 1_555
C3H_2 C2H_2 1_555 1_555
H3D C3D 1_555 1_555
H3D_2 C3D_2 1_555 1_555
H3A C3A 1_555 1_555
H3H C3H 1_555 1_555
H3H_2 C3H_2 1_555 1_555
C4D C3D 1_555 1_555
C4D_2 C3D_2 1_555 1_555
C4A C3A 1_555 1_555
C4H C3H 1_555 1_555
C4H_2 C3H_2 1_555 1_555
C5D C4D 1_555 1_555
C5D_2 C4D_2 1_555 1_555
C5A C4A 1_555 1_555
C5H C4H 1_555 1_555
C5H_2 C4H_2 1_555 1_555
H4D C5D 1_555 1_555
H4D_2 C5D_2 1_555 1_555
H4A C5A 1_555 1_555
H4H C5H 1_555 1_555
H4H_2 C5H_2 1_555 1_555
C6D C1D 1_555 1_555
C6D_2 C1D_2 1_555 1_555
C6A C1A 1_555 1_555
C6H C1H 1_555 1_555
C6H_2 C1H_2 1_555 1_555
H5D C6D 1_555 1_555
H5D_2 C6D_2 1_555 1_555
H5A C6A 1_555 1_555
H5H C6H 1_555 1_555
H5H_2 C6H_2 1_555 1_555
C7D C4D 1_555 1_555
C7D_2 C4D_2 1_555 1_555
C7A O2A 1_555 1_555
C7H C4H 1_555 1_555
C7H_2 C4H_2 1_555 1_555
O13D Zn3C 1_555 1_555
O13D_2 Zn3C_2 1_555 1_555
O13A Zn3 1_555 1_555
O13H C7H 1_555 1_555
O13H_2 C7H_2 1_555 1_555
O13E Zn3D 1_555 1_555
O13E_2 Zn3D_2 1_555 1_555
O13B Zn3A 1_555 1_555
C8D P1D 1_555 1_555
C8D_2 P1D_2 1_555 1_555
C8A P1A 1_555 1_555
C8H P1H 1_555 1_555
C8H_2 P1H_2 1_555 1_555
C9D C8D 1_555 1_555
C9D_2 C8D_2 1_555 1_555
C9A C8A 1_555 1_555
C9H C8H 1_555 1_555
C9H_2 C8H_2 1_555 1_555
H6D C9D 1_555 1_555
H6D_2 C9D_2 1_555 1_555
H6A C9A 1_555 1_555
H6H C9H 1_555 1_555
H6H_2 C9H_2 1_555 1_555
C10D C9D 1_555 1_555
C10D_2 C9D_2 1_555 1_555
C10A C9A 1_555 1_555
C10H C9H 1_555 1_555
C10H_2 C9H_2 1_555 1_555
H7D C10D 1_555 1_555
H7D_2 C10D_2 1_555 1_555
H7A C10A 1_555 1_555
H7H C10H 1_555 1_555
H7H_2 C10H_2 1_555 1_555
C11D C10D 1_555 1_555
C11D_2 C10D_2 1_555 1_555
C11A C10A 1_555 1_555
C11H C10H 1_555 1_555
C11H_2 C10H_2 1_555 1_555
C12D C11D 1_555 1_555
C12D_2 C11D_2 1_555 1_555
C12A C11A 1_555 1_555
C12H C11H 1_555 1_555
C12H_2 C11H_2 1_555 1_555
H8D C12D 1_555 1_555
H8D_2 C12D_2 1_555 1_555
H8A C12A 1_555 1_555
H8H C12H 1_555 1_555
H8H_2 C12H_2 1_555 1_555
C13D C8D 1_555 1_555
C13D_2 C8D_2 1_555 1_555
C13A C8A 1_555 1_555
C13H C8H 1_555 1_555
C13H_2 C8H_2 1_555 1_555
H9D C13D 1_555 1_555
H9D_2 C13D_2 1_555 1_555
H9A C13A 1_555 1_555
H9H C13H 1_555 1_555
H9H_2 C13H_2 1_555 1_555
C14D O8D 1_555 1_555
C14D_2 C11D_2 1_555 1_555
C14A C11A 1_555 1_555
C14H O8H 1_555 1_555
C14H_2 C11H_2 1_555 1_555
C15D P1D 1_555 1_555
C15D_2 P1D_2 1_555 1_555
C15A P1A 1_555 1_555
C15H P1H 1_555 1_555
C15H_2 P1H_2 1_555 1_555
C16D C15D 1_555 1_555
C16D_2 C15D_2 1_555 1_555
C16A C15A 1_555 1_555
C16H C15H 1_555 1_555
C16H_2 C15H_2 1_555 1_555
H10D C16D 1_555 1_555
H10D_2 C16D_2 1_555 1_555
H10A C16A 1_555 1_555
H10H C16H 1_555 1_555
H10H_2 C16H_2 1_555 1_555
C17D C15D 1_555 1_555
C17D_2 C15D_2 1_555 1_555
C17A C15A 1_555 1_555
C17H C15H 1_555 1_555
C17H_2 C15H_2 1_555 1_555
H11D C17D 1_555 1_555
H11D_2 C17D_2 1_555 1_555
H11A C17A 1_555 1_555
H11H C17H 1_555 1_555
H11H_2 C17H_2 1_555 1_555
C18D C16D 1_555 1_555
C18D_2 C16D_2 1_555 1_555
C18A C16A 1_555 1_555
C18H C16H 1_555 1_555
C18H_2 C16H_2 1_555 1_555
H12D C18D 1_555 1_555
H12D_2 C18D_2 1_555 1_555
H12A C18A 1_555 1_555
H12H C18H 1_555 1_555
H12H_2 C18H_2 1_555 1_555
C19D C18D 1_555 1_555
C19D_2 C18D_2 1_555 1_555
C19A C18A 1_555 1_555
C19H C18H 1_555 1_555
C19H_2 C18H_2 1_555 1_555
C20D C17D 1_555 1_555
C20D_2 C17D_2 1_555 1_555
C20A C17A 1_555 1_555
C20H C17H 1_555 1_555
C20H_2 C17H_2 1_555 1_555
H13D C20D 1_555 1_555
H13D_2 C20D_2 1_555 1_555
H13A C20A 1_555 1_555
H13H C20H 1_555 1_555
H13H_2 C20H_2 1_555 1_555
C21D O5D 1_555 1_555
C21D_2 O5D_2 1_555 1_555
C21A C19A 1_555 1_555
C21H C19H 1_555 1_555
C21H_2 O5H_2 1_555 1_555
C22A P2 1_555 1_555
C22B P2 1_555 1_555
C22D P2D 1_555 1_555
C22E P2D 1_555 1_555
C22C P2D 1_555 1_555
C23A C22A 1_555 1_555
C23B C22B 1_555 1_555
C23D C22D 1_555 1_555
C23E C22E 1_555 1_555
C23C C22C 1_555 1_555
H14A C23A 1_555 1_555
H14B C23B 1_555 1_555
H14D C23D 1_555 1_555
H14E C23E 1_555 1_555
H14C C23C 1_555 1_555
C24A C23A 1_555 1_555
C24B C23B 1_555 1_555
C24D C23D 1_555 1_555
C24E C23E 1_555 1_555
C24C C23C 1_555 1_555
H15A C24A 1_555 1_555
H15B C24B 1_555 1_555
H15D C24D 1_555 1_555
H15E C24E 1_555 1_555
H15C C24C 1_555 1_555
C25A C24A 1_555 1_555
C25B C24B 1_555 1_555
C25D C24D 1_555 1_555
C25E C24E 1_555 1_555
C25C C24C 1_555 1_555
C26A C25A 1_555 1_555
C26B C25B 1_555 1_555
C26D C25D 1_555 1_555
C26E C25E 1_555 1_555
C26C C25C 1_555 1_555
H16A C26A 1_555 1_555
H16B C26B 1_555 1_555
H16D C26D 1_555 1_555
H16E C26E 1_555 1_555
H16C C26C 1_555 1_555
C27A C22A 1_555 1_555
C27B C22B 1_555 1_555
C27D C22D 1_555 1_555
C27E C22E 1_555 1_555
C27C C22C 1_555 1_555
H17A C27A 1_555 1_555
H17B C27B 1_555 1_555
H17D C27D 1_555 1_555
H17E C27E 1_555 1_555
H17C C27C 1_555 1_555
C28A O9A 1_555 1_555
C28B O9B 1_555 1_555
C28D O9D 1_555 1_555
C28E C25E 1_555 1_555
C28C C25C 1_555 1_555
O12 Zn2H 1_555 1_555
C5 C6 1_555 1_555
O13 Zn3B 1_555 1_555
C12 C13 1_555 1_555
C19 C20 1_555 1_555
C25 C28 1_555 1_555
C26 C27 1_555 1_555
Zn1D_2 O12D 1_555 1_555
Zn2_2 O12D_2 1_555 1_555
Zn2N O12O 1_555 1_555
Zn2D_2 O12H 1_555 1_555
Zn2I O12D 1_555 1_555
Zn2F O12A 1_555 1_555
Zn2I_2 O12M_2 1_555 1_555
Zn2P O12K_2 1_555 1_555
Zn3C O3D 1_555 1_555
O6H_2 C21H_2 1_555 1_555
C4A C7A 1_555 1_555
C5D C6D 1_555 1_555
C5D_2 C6D_2 1_555 1_555
C5A C6A 1_555 1_555
C5H C6H 1_555 1_555
C5H_2 C6H_2 1_555 1_555
C7D O13D 1_555 1_555
C7D_2 O13D_2 1_555 1_555
C7A O13A 1_555 1_555
C11D C14D 1_555 1_555
C11H C14H 1_555 1_555
C12D C13D 1_555 1_555
C12D_2 C13D_2 1_555 1_555
C12A C13A 1_555 1_555
C12H C13H 1_555 1_555
C12H_2 C13H_2 1_555 1_555
C19D C20D 1_555 1_555
C19D C21D 1_555 1_555
C19D_2 C20D_2 1_555 1_555
C19D_2 C21D_2 1_555 1_555
C19A C20A 1_555 1_555
C19H C20H 1_555 1_555
C19H_2 C20H_2 1_555 1_555
C19H_2 C21H_2 1_555 1_555
C25A C28A 1_555 1_555
C25B C28B 1_555 1_555
C25D C28D 1_555 1_555
C26A C27A 1_555 1_555
C26B C27B 1_555 1_555
C26D C27D 1_555 1_555
C26E C27E 1_555 1_555
C26C C27C 1_555 1_555

#END
