
#######################################################################
#
#                 Cambridge Crystallographic Data Centre
#                                CCDC 
#
#######################################################################
#
# If this CIF has been generated from an entry in the Cambridge 
# Structural Database, then it will include bibliographic, chemical, 
# crystal, experimental, refinement or atomic coordinate data resulting 
# from the CCDC's data processing and validation procedures.
#
#######################################################################

data_AFITIT
_symmetry_cell_setting           monoclinic
_symmetry_space_group_name_H-M   'C 2'
_symmetry_Int_Tables_number      5
_space_group_name_Hall           'C 2y'
loop_
_symmetry_equiv_pos_site_id
_symmetry_equiv_pos_as_xyz
1 x,y,z
2 -x,y,-z
3 1/2+x,1/2+y,z
4 1/2-x,1/2+y,-z
_cell_length_a                   21.792(2)
_cell_length_b                   27.979(3)
_cell_length_c                   14.0334(15)
_cell_angle_alpha                90
_cell_angle_beta                 93.579(2)
_cell_angle_gamma                90
_cell_volume                     8539.73
loop_
_atom_site_label
_atom_site_type_symbol
_atom_site_fract_x
_atom_site_fract_y
_atom_site_fract_z
C24 C 0.7137(3) 0.9832(2) 0.6917(4)
C25 C 0.7532(3) 1.0247(2) 0.6895(4)
C26 C 0.7645(3) 1.0462(2) 0.5976(4)
H17 H 0.7476 1.0321 0.5402
C27 C 0.7818(3) 1.04495(19) 0.7735(4)
H18 H 0.7765 1.0307 0.8339
C28 C 0.8173(3) 1.0854(2) 0.7672(4)
H19 H 0.8367 1.0986 0.8237
C29 C 0.8000(3) 1.0874(2) 0.5940(4)
C30 C 0.8137(3) 1.1063(2) 0.4943(4)
H20 H 0.7944 1.1377 0.4842
H21 H 0.7971 1.0840 0.4453
H22 H 0.8582 1.1093 0.4900
C31 C 0.8257(3) 1.1081(2) 0.6774(4)
C32 C 0.8621(3) 1.1500(2) 0.6773(4)
C33 C 0.8934(3) 1.1851(2) 0.6788(5)
C34 C 0.9298(3) 1.2271(2) 0.6800(4)
C35 C 0.9300(3) 1.2578(2) 0.6031(4)
C36 C 0.8897(3) 1.2495(2) 0.5160(4)
H23 H 0.9015 1.2196 0.4858
H24 H 0.8940 1.2761 0.4715
H25 H 0.8468 1.2474 0.5331
C37 C 0.9678(3) 1.2378(2) 0.7607(4)
H26 H 0.9679 1.2173 0.8147
C38 C 1.0051(3) 1.2775(2) 0.7634(4)
H27 H 1.0301 1.2843 0.8198
C39 C 0.9691(3) 1.2979(2) 0.6094(4)
H28 H 0.9692 1.3194 0.5571
C40 C 1.0069(3) 1.30654(19) 0.6888(4)
C41 C 1.0537(3) 1.34862(19) 0.6855(4)
C42 C 0.7121(3) 0.84915(19) 0.6749(5)
C43 C 0.7569(3) 0.80696(19) 0.6721(4)
C44 C 0.7658(3) 0.7848(2) 0.5936(5)
H29 H 0.7436 0.7957 0.5372
C45 C 0.7833(3) 0.7901(2) 0.7547(4)
H30 H 0.7762 0.8058 0.8130
C46 C 0.8216(3) 0.7490(2) 0.7555(5)
H31 H 0.8397 0.7367 0.8138
C47 C 0.8054(3) 0.7461(2) 0.5851(5)
C48 C 0.8104(5) 0.7213(4) 0.4870(7)
H32 H 0.7834 0.7375 0.4387
H33 H 0.7980 0.6877 0.4917
H34 H 0.8530 0.7229 0.4686
C49 C 0.8319(3) 0.7275(2) 0.6702(6)
C50 C 0.8683(3) 0.6840(3) 0.6719(5)
C51 C 0.8980(3) 0.6487(2) 0.6704(5)
C52 C 0.9347(3) 0.6056(2) 0.6753(5)
C53 C 0.9767(3) 0.5974(2) 0.7553(5)
H35 H 0.9796 0.6201 0.8057
C54 C 0.9291(3) 0.57211(19) 0.5997(4)
C55 C 0.8826(3) 0.5785(2) 0.5163(5)
H36 H 0.8988 0.6010 0.4705
H37 H 0.8443 0.5911 0.5392
H38 H 0.8747 0.5476 0.4851
C56 C 0.9662(2) 0.53278(18) 0.6063(4)
H39 H 0.9622 0.5095 0.5571
C57 C 1.0123(3) 0.5585(2) 0.7612(5)
H40 H 1.0389 0.5527 0.8163
C58 C 1.0096(3) 0.5253(2) 0.6815(4)
C59 C 1.0486(3) 0.4821(2) 0.6859(5)
C60 C 0.6785(2) 0.93422(18) 0.3947(3)
H41 H 0.7134 0.9433 0.4344
C61 C 0.57673(18) 0.9138(2) 0.3794(2)
H42 H 0.5388 0.9086 0.4077
C62 C 0.57751(19) 0.91266(19) 0.2820(3)
H43 H 0.5412 0.9057 0.2436
C63 C 0.6833(2) 0.93429(18) 0.3005(3)
H44 H 0.7209 0.9427 0.2742
C64 C 0.63192(19) 0.9218(2) 0.2409(3)
C65 C 0.63607(18) 0.9189(3) 0.1344(3)
C66 C 0.6009(2) 0.88503(18) 0.0807(3)
H45 H 0.5758 0.8625 0.1107
C67 C 0.6719(2) 0.94905(19) 0.0850(3)
H46 H 0.6969 0.9720 0.1188
C68 C 0.6723(2) 0.94666(17) -0.0130(3)
H47 H 0.6978 0.9682 -0.0448
C69 C 0.6043(2) 0.88593(17) -0.0180(3)
H48 H 0.5801 0.8636 -0.0550
N2 N 0.62721(15) 0.92202(17) 0.4364(2)
N3 N 0.63929(13) 0.9161(2) -0.0638(2)
O5 O 0.6909(2) 0.96703(14) 0.6152(3)
O6 O 0.70161(18) 0.96658(12) 0.7729(3)
O7 O 1.0643(2) 1.36414(13) 0.6081(3)
O8 O 1.07323(18) 1.36315(12) 0.7678(3)
O9 O 0.69155(19) 0.86454(13) 0.5976(3)
O10 O 0.7014(2) 0.86468(13) 0.7564(3)
O11 O 1.0604(2) 0.46413(13) 0.6044(3)
O12 O 1.0730(2) 0.46706(13) 0.7633(3)
Zn2 Zn 0.626475(19) 0.91633(2) 0.58075(3)
Zn3 Zn 0.638690(19) 0.91555(2) -0.20921(3)
C24B C 0.2137(3) 0.4832(2) 0.6917(4)
C25B C 0.2532(3) 0.5247(2) 0.6895(4)
C26B C 0.2645(3) 0.5462(2) 0.5976(4)
H17B H 0.2476 0.5321 0.5402
C27B C 0.2818(3) 0.54495(19) 0.7735(4)
H18B H 0.2765 0.5307 0.8339
C28B C 0.3173(3) 0.5854(2) 0.7672(4)
H19B H 0.3367 0.5986 0.8237
C29B C 0.3000(3) 0.5874(2) 0.5940(4)
C30B C 0.3137(3) 0.6063(2) 0.4943(4)
H20B H 0.2944 0.6377 0.4842
H21B H 0.2971 0.5840 0.4453
H22B H 0.3582 0.6093 0.4900
C31B C 0.3257(3) 0.6081(2) 0.6774(4)
C32B C 0.3621(3) 0.6500(2) 0.6773(4)
C33B C 0.3934(3) 0.6851(2) 0.6788(5)
C34B C 0.4298(3) 0.7271(2) 0.6800(4)
C35B C 0.4300(3) 0.7578(2) 0.6031(4)
C36B C 0.3897(3) 0.7495(2) 0.5160(4)
H23B H 0.4015 0.7196 0.4858
H24B H 0.3940 0.7761 0.4715
H25B H 0.3468 0.7474 0.5331
C37B C 0.4678(3) 0.7378(2) 0.7607(4)
H26B H 0.4679 0.7173 0.8147
C38B C 0.5051(3) 0.7775(2) 0.7634(4)
H27B H 0.5301 0.7843 0.8198
C39B C 0.4691(3) 0.7979(2) 0.6094(4)
H28B H 0.4692 0.8194 0.5571
C40B C 0.5069(3) 0.80654(19) 0.6888(4)
C41B C 0.5537(3) 0.84862(19) 0.6855(4)
C42B C 0.2121(3) 1.34915(19) 0.6749(5)
C43B C 0.2569(3) 1.30696(19) 0.6721(4)
C44B C 0.2658(3) 1.2848(2) 0.5936(5)
H29B H 0.2436 1.2957 0.5372
C45B C 0.2833(3) 1.2901(2) 0.7547(4)
H30B H 0.2762 1.3058 0.8130
C46B C 0.3216(3) 1.2490(2) 0.7555(5)
H31B H 0.3397 1.2367 0.8138
C47B C 0.3054(3) 1.2461(2) 0.5851(5)
C48B C 0.3104(5) 1.2213(4) 0.4870(7)
H32B H 0.2834 1.2375 0.4387
H33B H 0.2980 1.1877 0.4917
H34B H 0.3530 1.2229 0.4686
C49B C 0.3319(3) 1.2275(2) 0.6702(6)
C50B C 0.3683(3) 1.1840(3) 0.6719(5)
C51B C 0.3980(3) 1.1487(2) 0.6704(5)
C52B C 0.4347(3) 1.1056(2) 0.6753(5)
C53B C 0.4767(3) 1.0974(2) 0.7553(5)
H35B H 0.4796 1.1201 0.8057
C54B C 0.4291(3) 1.07211(19) 0.5997(4)
C55B C 0.3826(3) 1.0785(2) 0.5163(5)
H36B H 0.3988 1.1010 0.4705
H37B H 0.3443 1.0911 0.5392
H38B H 0.3747 1.0476 0.4851
C56B C 0.4662(2) 1.03278(18) 0.6063(4)
H39B H 0.4622 1.0095 0.5571
C57B C 0.5123(3) 1.0585(2) 0.7612(5)
H40B H 0.5389 1.0527 0.8163
C58B C 0.5096(3) 1.0253(2) 0.6815(4)
C59B C 0.5486(3) 0.9821(2) 0.6859(5)
C60B C 0.1785(2) 0.43422(18) 0.3947(3)
H41B H 0.2134 0.4433 0.4344
C61B C 0.07673(18) 0.4138(2) 0.3794(2)
H42B H 0.0388 0.4086 0.4077
C62B C 0.07751(19) 0.41266(19) 0.2820(3)
H43B H 0.0412 0.4057 0.2436
C63B C 0.1833(2) 0.43429(18) 0.3005(3)
H44B H 0.2209 0.4427 0.2742
C64B C 0.13192(19) 0.4218(2) 0.2409(3)
C65B C 0.13607(18) 0.4189(3) 0.1344(3)
C66B C 0.1009(2) 0.38503(18) 0.0807(3)
H45B H 0.0758 0.3625 0.1107
C67B C 0.1719(2) 0.44905(19) 0.0850(3)
H46B H 0.1969 0.4720 0.1188
C68B C 0.1723(2) 0.44666(17) -0.0130(3)
H47B H 0.1978 0.4682 -0.0448
C69B C 0.1043(2) 0.38593(17) -0.0180(3)
H48B H 0.0801 0.3636 -0.0550
N2B N 0.12721(15) 0.42202(17) 0.4364(2)
N3B N 0.13929(13) 0.4161(2) -0.0638(2)
N3_2 N 0.63929(13) 0.9161(2) 0.9362(2)
O5B O 0.1909(2) 0.46703(14) 0.6152(3)
O6B O 0.20161(18) 0.46658(12) 0.7729(3)
O6_2 O 0.70161(18) 0.96658(12) -0.2271(3)
O7B O 0.5643(2) 0.86414(13) 0.6081(3)
O7_2 O 0.0643(2) 0.36414(13) 0.6081(3)
O8B O 0.57323(18) 0.86315(12) 0.7678(3)
O8B_2 O 0.57323(18) 0.86315(12) -0.2322(3)
O9B O 0.19155(19) 1.36454(13) 0.5976(3)
O9B_2 O 0.19155(19) 0.36454(13) 0.5976(3)
O10B O 0.2014(2) 1.36468(13) 0.7564(3)
O10_2 O 0.7014(2) 0.86468(13) -0.2436(3)
O11B O 0.5604(2) 0.96413(13) 0.6044(3)
O11_2 O 0.0604(2) 0.46413(13) 0.6044(3)
O12B O 0.5730(2) 0.96706(13) 0.7633(3)
O12B_2 O 0.5730(2) 0.96706(13) -0.2367(3)
Zn2B Zn 0.126475(19) 0.41633(2) 0.58075(3)
Zn2B_2 Zn 1.126475(19) 1.41633(2) 0.58075(3)
Zn2B_3 Zn 1.126475(19) 0.41633(2) 0.58075(3)
Zn2B_4 Zn 0.126475(19) 1.41633(2) 0.58075(3)
Zn3_2 Zn 0.638690(19) 0.91555(2) 0.79079(3)
Zn3B Zn 1.138690(19) 1.41555(2) 0.79079(3)
Zn3B_2 Zn 1.138690(19) 0.41555(2) 0.79079(3)
Zn3B_3 Zn 0.138690(19) 0.41555(2) 0.79079(3)
Zn3B_4 Zn 0.138690(19) 1.41555(2) 0.79079(3)
Zn3B_5 Zn 0.138690(19) 0.41555(2) -0.20921(3)
C1 C 0.9187(3) 0.1517(2) 1.0042(4)
C2 C 0.8785(3) 0.19363(19) 1.0008(4)
C3 C 0.8695(3) 0.2196(2) 1.0888(4)
H1 H 0.8874 0.2089 1.1484
C4 C 0.8471(3) 0.20820(19) 0.9148(4)
H2 H 0.8510 0.1896 0.8589
C5 C 0.8113(3) 0.2483(2) 0.9096(4)
C6 C 0.7798(3) 0.26499(16) 0.8171(3)
H3 H 0.7934 0.2454 0.7645
H4 H 0.7902 0.2985 0.8062
H5 H 0.7351 0.2619 0.8204
C7 C 0.8334(3) 0.26086(19) 1.0818(4)
H6 H 0.8298 0.2801 1.1369
C8 C 0.8032(3) 0.2742(2) 0.9978(4)
C9 C 0.7626(3) 0.3159(2) 0.9927(5)
C10 C 0.7295(3) 0.3492(2) 0.9914(4)
C11 C 0.6909(3) 0.3917(2) 0.9966(5)
C12 C 0.6832(2) 0.4130(2) 1.0827(4)
H7 H 0.7027 0.4003 1.1396
C13 C 0.6645(3) 0.4096(2) 0.9113(4)
C14 C 0.6703(3) 0.38537(18) 0.8183(3)
H8 H 0.6457 0.4024 0.7683
H9 H 0.6556 0.3524 0.8224
H10 H 0.7136 0.3853 0.8028
C15 C 0.6291(3) 0.45171(19) 0.9214(4)
H11 H 0.6096 0.4652 0.8652
C16 C 0.6471(3) 0.45274(19) 1.0860(4)
H12 H 0.6395 0.4666 1.1459
C17 C 0.6213(3) 0.47312(19) 1.0021(4)
C18 C 0.5781(3) 0.51584(19) 1.0071(4)
C19 C 0.5193(2) 0.62009(17) 0.7028(3)
H13 H 0.5340 0.6473 0.7377
C20 C 0.4758(3) 0.54419(17) 0.6989(3)
H14 H 0.4596 0.5177 0.7314
C21 C 0.4770(3) 0.54254(16) 0.6019(3)
H15 H 0.4625 0.5151 0.5674
C22 C 0.5212(2) 0.61986(17) 0.6065(3)
H16 H 0.5378 0.6467 0.5757
C23 C 0.5001(2) 0.5825(2) 0.5532(3)
N1 N 0.49699(16) 0.5826(2) 0.7508(2)
O1 O 0.5625(2) 0.53540(13) 0.9299(3)
O2 O 0.5663(2) 0.52888(13) 1.0897(3)
O3 O 0.9434(2) 0.13819(13) 1.0837(3)
O4 O 0.92905(18) 0.13130(12) 0.9238(3)
Zn1 Zn 0.49488(2) 0.583849(16) 0.89522(3)
C1A C 0.0813(3) 0.1517(2) 0.9958(4)
C1B C 0.4187(3) 0.6517(2) 1.0042(4)
C1C C 0.5813(3) 0.6517(2) 0.9958(4)
C2A C 0.1215(3) 0.19363(19) 0.9992(4)
C2B C 0.3785(3) 0.69363(19) 1.0008(4)
C2C C 0.6215(3) 0.69363(19) 0.9992(4)
C3A C 0.1305(3) 0.2196(2) 0.9112(4)
C3C C 0.6305(3) 0.7196(2) 0.9112(4)
C3B C 0.3695(3) 0.7196(2) 1.0888(4)
H1A H 0.1126 0.2089 0.8516
H1C H 0.6126 0.7089 0.8516
H1B H 0.3874 0.7089 1.1484
C4A C 0.1529(3) 0.20820(19) 1.0852(4)
C4C C 0.6529(3) 0.70820(19) 1.0852(4)
C4B C 0.3471(3) 0.70820(19) 0.9148(4)
H2A H 0.1490 0.1896 1.1411
H2C H 0.6490 0.6896 1.1411
H2B H 0.3510 0.6896 0.8589
C5A C 0.1887(3) 0.2483(2) 1.0904(4)
C5C C 0.6887(3) 0.7483(2) 1.0904(4)
C5B C 0.3113(3) 0.7483(2) 0.9096(4)
C6A C 0.2202(3) 0.26499(16) 1.1829(3)
C6C C 0.7202(3) 0.76499(16) 1.1829(3)
C6B C 0.2798(3) 0.76499(16) 0.8171(3)
H3A H 0.2066 0.2454 1.2355
H3B H 0.2934 0.7454 0.7645
H3C H 0.7066 0.7454 1.2355
H4A H 0.2098 0.2985 1.1938
H4B H 0.2902 0.7985 0.8062
H4C H 0.7098 0.7985 1.1938
H5A H 0.2649 0.2619 1.1796
H5B H 0.2351 0.7619 0.8204
H5C H 0.7649 0.7619 1.1796
C7A C 0.1666(3) 0.26086(19) 0.9182(4)
C7C C 0.6666(3) 0.76086(19) 0.9182(4)
C7B C 0.3334(3) 0.76086(19) 1.0818(4)
H6A H 0.1702 0.2801 0.8631
H6B H 0.3298 0.7801 1.1369
H6C H 0.6702 0.7801 0.8631
C8A C 0.1968(3) 0.2742(2) 1.0022(4)
C8C C 0.6968(3) 0.7742(2) 1.0022(4)
C8B C 0.3032(3) 0.7742(2) 0.9978(4)
C9A C 0.2374(3) 0.3159(2) 1.0073(5)
C9B C 0.2626(3) 0.8159(2) 0.9927(5)
C9C C 0.7374(3) 0.8159(2) 1.0073(5)
C10A C 0.2705(3) 0.3492(2) 1.0086(4)
C10B C 0.2295(3) 0.8492(2) 0.9914(4)
C10C C 0.7705(3) 0.8492(2) 1.0086(4)
C11A C 0.3091(3) 0.3917(2) 1.0034(5)
C11B C 0.1909(3) 0.8917(2) 0.9966(5)
C11C C 0.8091(3) 0.8917(2) 1.0034(5)
C12A C 0.3168(2) 0.4130(2) 0.9173(4)
C12B C 0.1832(2) 0.9130(2) 1.0827(4)
C12C C 0.8168(2) 0.9130(2) 0.9173(4)
H7A H 0.2973 0.4003 0.8604
H7B H 0.2027 0.9003 1.1396
H7C H 0.7973 0.9003 0.8604
C13A C 0.3355(3) 0.4096(2) 1.0887(4)
C13B C 0.1645(3) 0.9096(2) 0.9113(4)
C13C C 0.8355(3) 0.9096(2) 1.0887(4)
C14A C 0.3297(3) 0.38537(18) 1.1817(3)
C14B C 0.1703(3) 0.88537(18) 0.8183(3)
C14C C 0.8297(3) 0.88537(18) 1.1817(3)
H8A H 0.3543 0.4024 1.2317
H8B H 0.1457 0.9024 0.7683
H8C H 0.8543 0.9024 1.2317
H9A H 0.3444 0.3524 1.1776
H9B H 0.1556 0.8524 0.8224
H9C H 0.8444 0.8524 1.1776
H10A H 0.2864 0.3853 1.1972
H10B H 0.2136 0.8853 0.8028
H10C H 0.7864 0.8853 1.1972
C15A C 0.3709(3) 0.45171(19) 1.0786(4)
C15B C 0.1291(3) 0.95171(19) 0.9214(4)
C15C C 0.8709(3) 0.95171(19) 1.0786(4)
H11A H 0.3904 0.4652 1.1348
H11B H 0.1096 0.9652 0.8652
H11C H 0.8904 0.9652 1.1348
C16A C 0.3529(3) 0.45274(19) 0.9140(4)
C16B C 0.1471(3) 0.95274(19) 1.0860(4)
C16C C 0.8529(3) 0.95274(19) 0.9140(4)
H12A H 0.3605 0.4666 0.8541
H12B H 0.1395 0.9666 1.1459
H12C H 0.8605 0.9666 0.8541
C17A C 0.3787(3) 0.47312(19) 0.9979(4)
C17B C 0.1213(3) 0.97312(19) 1.0021(4)
C17C C 0.8787(3) 0.97312(19) 0.9979(4)
C18A C 0.4219(3) 0.51584(19) 0.9929(4)
C18B C 0.0781(3) 1.01584(19) 1.0071(4)
C18C C 0.9219(3) 1.01584(19) 0.9929(4)
C19A C 0.4807(2) 0.62009(17) 0.2972(3)
C19B C 0.0193(2) 0.12009(17) 0.7028(3)
C19C C -0.0193(2) 0.12009(17) 0.2972(3)
H13A H 0.4660 0.6473 0.2623
H13B H 0.0340 0.1473 0.7377
H13C H -0.0340 0.1473 0.2623
C20A C 0.5242(3) 0.54419(17) 0.3011(3)
C20B C -0.0242(3) 0.04419(17) 0.6989(3)
C20C C 0.0242(3) 0.04419(17) 0.3011(3)
H14A H 0.5404 0.5177 0.2686
H14B H -0.0404 0.0177 0.7314
H14C H 0.0404 0.0177 0.2686
C21A C 0.5230(3) 0.54254(16) 0.3981(3)
C21B C -0.0230(3) 0.04254(16) 0.6019(3)
C21C C 0.0230(3) 0.04254(16) 0.3981(3)
H15A H 0.5375 0.5151 0.4326
H15B H -0.0375 0.0151 0.5674
H15C H 0.0375 0.0151 0.4326
C22A C 0.4788(2) 0.61986(17) 0.3935(3)
C22B C 0.0212(2) 0.11986(17) 0.6065(3)
C22C C -0.0212(2) 0.11986(17) 0.3935(3)
H16A H 0.4622 0.6467 0.4243
H16B H 0.0378 0.1467 0.5757
H16C H -0.0378 0.1467 0.4243
C23A C 0.4999(2) 0.5825(2) 0.4468(3)
C23B C 0.0001(2) 0.0825(2) 0.5532(3)
C23C C -0.0001(2) 0.0825(2) 0.4468(3)
N1A N 0.50301(16) 0.5826(2) 0.2492(2)
N1A_2 N 0.50301(16) 0.5826(2) 1.2492(2)
N1B N -0.00301(16) 0.0826(2) 0.7508(2)
N1C N 0.00301(16) 0.0826(2) 0.2492(2)
O1A O 0.4375(2) 0.53540(13) 1.0701(3)
O1A_2 O 0.4375(2) 0.53540(13) 0.0701(3)
O1B O 0.0625(2) 1.03540(13) 0.9299(3)
O1C O 0.9375(2) 1.03540(13) 1.0701(3)
O1B_2 O 0.0625(2) 0.03540(13) 0.9299(3)
O2A O 0.4337(2) 0.52888(13) 0.9103(3)
O2_2 O 0.5663(2) 0.52888(13) 0.0897(3)
O2B O 0.0663(2) 1.02888(13) 1.0897(3)
O2C O 0.9337(2) 1.02888(13) 0.9103(3)
O2C_2 O -0.0663(2) 0.02888(13) 0.9103(3)
O3A O 0.0566(2) 0.13819(13) 0.9163(3)
O3C O 0.5566(2) 0.63819(13) 0.9163(3)
O3B O 0.4434(2) 0.63819(13) 0.0837(3)
O3B_2 O 0.4434(2) 0.63819(13) 1.0837(3)
O4A O 0.07095(18) 0.13130(12) 1.0762(3)
O4B O 0.42905(18) 0.63130(12) 0.9238(3)
O4C O 0.57095(18) 0.63130(12) 0.0762(3)
O4C_2 O 0.57095(18) 0.63130(12) 1.0762(3)
O4_2 O -0.07095(18) 0.13130(12) 0.9238(3)
Zn1A Zn 0.50512(2) 0.583849(16) 0.10478(3)
Zn1A_2 Zn 0.50512(2) 0.583849(16) 1.10478(3)
Zn1C Zn 1.00512(2) 0.083849(16) 1.10478(3)
Zn1B Zn 0.99488(2) 0.083849(16) 0.89522(3)
Zn1B_2 Zn -0.00512(2) 0.083849(16) 0.89522(3)
Zn1C_2 Zn 0.00512(2) 0.083849(16) 1.10478(3)
Zn1C_3 Zn 0.00512(2) 1.083849(16) 1.10478(3)
Zn1B_3 Zn -0.00512(2) 1.083849(16) 0.89522(3)
Zn1C_4 Zn 1.00512(2) 1.083849(16) 1.10478(3)
Zn1B_4 Zn 0.99488(2) 1.083849(16) 0.89522(3)
Zn1C_5 Zn 0.00512(2) 0.083849(16) 0.10478(3)
loop_
_geom_bond_atom_site_label_1
_geom_bond_atom_site_label_2
_geom_bond_site_symmetry_1
_geom_bond_site_symmetry_2
C1 C2 1_555 1_555
C2 C3 1_555 1_555
C3 H1 1_555 1_555
C4 C2 1_555 1_555
H2 C4 1_555 1_555
C5 C4 1_555 1_555
C6 C5 1_555 1_555
H3 C6 1_555 1_555
H4 C6 1_555 1_555
H5 C6 1_555 1_555
C7 C3 1_555 1_555
H6 C7 1_555 1_555
C8 C5 1_555 1_555
C9 C8 1_555 1_555
C10 C9 1_555 1_555
C11 C10 1_555 1_555
C12 C11 1_555 1_555
H7 C12 1_555 1_555
C13 C11 1_555 1_555
C14 C13 1_555 1_555
H8 C14 1_555 1_555
H9 C14 1_555 1_555
H10 C14 1_555 1_555
C15 C13 1_555 1_555
H11 C15 1_555 1_555
C16 C12 1_555 1_555
H12 C16 1_555 1_555
C17 C15 1_555 1_555
C18 C17 1_555 1_555
C19 H13 1_555 1_555
C20 H14 1_555 1_555
C21 C20 1_555 1_555
H15 C21 1_555 1_555
C22 C19 1_555 1_555
H16 C22 1_555 1_555
C23 C21 1_555 1_555
N1 C19 1_555 1_555
O1 C18 1_555 1_555
O2 C18 1_555 1_555
O3 C1 1_555 1_555
O4 C1 1_555 1_555
Zn1 N1 1_555 1_555
C24 C25 1_555 1_555
C25 C26 1_555 1_555
C26 H17 1_555 1_555
C27 C25 1_555 1_555
H18 C27 1_555 1_555
C28 C27 1_555 1_555
H19 C28 1_555 1_555
C29 C26 1_555 1_555
C30 C29 1_555 1_555
H20 C30 1_555 1_555
H21 C30 1_555 1_555
H22 C30 1_555 1_555
C31 C28 1_555 1_555
C32 C31 1_555 1_555
C33 C32 1_555 1_555
C34 C33 1_555 1_555
C35 C34 1_555 1_555
C36 C35 1_555 1_555
H23 C36 1_555 1_555
H24 C36 1_555 1_555
H25 C36 1_555 1_555
C37 C34 1_555 1_555
H26 C37 1_555 1_555
C38 C37 1_555 1_555
H27 C38 1_555 1_555
C39 C35 1_555 1_555
H28 C39 1_555 1_555
C40 C38 1_555 1_555
C41 C40 1_555 1_555
C42 C43 1_555 1_555
C43 C44 1_555 1_555
C44 H29 1_555 1_555
C45 C43 1_555 1_555
H30 C45 1_555 1_555
C46 C45 1_555 1_555
H31 C46 1_555 1_555
C47 C44 1_555 1_555
C48 C47 1_555 1_555
H32 C48 1_555 1_555
H33 C48 1_555 1_555
H34 C48 1_555 1_555
C49 C46 1_555 1_555
C50 C49 1_555 1_555
C51 C50 1_555 1_555
C52 C51 1_555 1_555
C53 C52 1_555 1_555
H35 C53 1_555 1_555
C54 C52 1_555 1_555
C55 C54 1_555 1_555
H36 C55 1_555 1_555
H37 C55 1_555 1_555
H38 C55 1_555 1_555
C56 C54 1_555 1_555
H39 C56 1_555 1_555
C57 C53 1_555 1_555
H40 C57 1_555 1_555
C58 C56 1_555 1_555
C59 C58 1_555 1_555
C60 H41 1_555 1_555
C61 H42 1_555 1_555
C62 C61 1_555 1_555
H43 C62 1_555 1_555
C63 C60 1_555 1_555
H44 C63 1_555 1_555
C64 C62 1_555 1_555
C65 C64 1_555 1_555
C66 C65 1_555 1_555
H45 C66 1_555 1_555
C67 C65 1_555 1_555
H46 C67 1_555 1_555
C68 C67 1_555 1_555
H47 C68 1_555 1_555
C69 C66 1_555 1_555
H48 C69 1_555 1_555
N2 C60 1_555 1_555
N3 C68 1_555 1_555
O5 C24 1_555 1_555
O6 C24 1_555 1_555
O7 C41 1_555 1_555
O8 C41 1_555 1_555
O9 C42 1_555 1_555
O10 C42 1_555 1_555
O11 C59 1_555 1_555
O12 C59 1_555 1_555
Zn2 N2 1_555 1_555
Zn3 N3 1_555 1_555
C1A C2A 1_555 1_555
C1B C2B 1_555 1_555
C1C C2C 1_555 1_555
C2A C3A 1_555 1_555
C2B C3B 1_555 1_555
C2C C3C 1_555 1_555
C3A H1A 1_555 1_555
C3C H1C 1_555 1_555
C3B H1B 1_555 1_555
C4A C2A 1_555 1_555
C4C C2C 1_555 1_555
C4B C2B 1_555 1_555
H2A C4A 1_555 1_555
H2C C4C 1_555 1_555
H2B C4B 1_555 1_555
C5A C4A 1_555 1_555
C5C C4C 1_555 1_555
C5B C4B 1_555 1_555
C6A C5A 1_555 1_555
C6C C5C 1_555 1_555
C6B C5B 1_555 1_555
H3A C6A 1_555 1_555
H3B C6B 1_555 1_555
H3C C6C 1_555 1_555
H4A C6A 1_555 1_555
H4B C6B 1_555 1_555
H4C C6C 1_555 1_555
H5A C6A 1_555 1_555
H5B C6B 1_555 1_555
H5C C6C 1_555 1_555
C7A C3A 1_555 1_555
C7C C3C 1_555 1_555
C7B C3B 1_555 1_555
H6A C7A 1_555 1_555
H6B C7B 1_555 1_555
H6C C7C 1_555 1_555
C8A C5A 1_555 1_555
C8C C5C 1_555 1_555
C8B C5B 1_555 1_555
C9A C8A 1_555 1_555
C9B C8B 1_555 1_555
C9C C8C 1_555 1_555
C10A C9A 1_555 1_555
C10B C9B 1_555 1_555
C10C C9C 1_555 1_555
C11A C10A 1_555 1_555
C11B C10B 1_555 1_555
C11C C10C 1_555 1_555
C12A C11A 1_555 1_555
C12B C11B 1_555 1_555
C12C C11C 1_555 1_555
H7A C12A 1_555 1_555
H7B C12B 1_555 1_555
H7C C12C 1_555 1_555
C13A C11A 1_555 1_555
C13B C11B 1_555 1_555
C13C C11C 1_555 1_555
C14A C13A 1_555 1_555
C14B C13B 1_555 1_555
C14C C13C 1_555 1_555
H8A C14A 1_555 1_555
H8B C14B 1_555 1_555
H8C C14C 1_555 1_555
H9A C14A 1_555 1_555
H9B C14B 1_555 1_555
H9C C14C 1_555 1_555
H10A C14A 1_555 1_555
H10B C14B 1_555 1_555
H10C C14C 1_555 1_555
C15A C13A 1_555 1_555
C15B C13B 1_555 1_555
C15C C13C 1_555 1_555
H11A C15A 1_555 1_555
H11B C15B 1_555 1_555
H11C C15C 1_555 1_555
C16A C12A 1_555 1_555
C16B C12B 1_555 1_555
C16C C12C 1_555 1_555
H12A C16A 1_555 1_555
H12B C16B 1_555 1_555
H12C C16C 1_555 1_555
C17A C15A 1_555 1_555
C17B C15B 1_555 1_555
C17C C15C 1_555 1_555
C18A C17A 1_555 1_555
C18B C17B 1_555 1_555
C18C C17C 1_555 1_555
C19A H13A 1_555 1_555
C19B H13B 1_555 1_555
C19C H13C 1_555 1_555
C20A H14A 1_555 1_555
C20B H14B 1_555 1_555
C20C H14C 1_555 1_555
C21A C20A 1_555 1_555
C21B C20B 1_555 1_555
C21C C20C 1_555 1_555
H15A C21A 1_555 1_555
H15B C21B 1_555 1_555
H15C C21C 1_555 1_555
C22A C19A 1_555 1_555
C22B C19B 1_555 1_555
C22C C19C 1_555 1_555
H16A C22A 1_555 1_555
H16B C22B 1_555 1_555
H16C C22C 1_555 1_555
C23A C23 1_555 1_555
C23B C21B 1_555 1_555
C23C C21C 1_555 1_555
N1A C19A 1_555 1_555
N1A_2 Zn1A_2 1_555 1_555
N1B C19B 1_555 1_555
N1C C19C 1_555 1_555
O1A C18A 1_555 1_555
O1A_2 Zn1A 1_555 1_555
O1B C18B 1_555 1_555
O1C C18C 1_555 1_555
O1B_2 Zn1B_2 1_555 1_555
O2A Zn1 1_555 1_555
O2_2 Zn1A 1_555 1_555
O2B C18B 1_555 1_555
O2C C18C 1_555 1_555
O2C_2 Zn1B_2 1_555 1_555
O3A C1A 1_555 1_555
O3C Zn1 1_555 1_555
O3B Zn1A 1_555 1_555
O3B_2 C1B 1_555 1_555
O4A C1A 1_555 1_555
O4B Zn1 1_555 1_555
O4C Zn1A 1_555 1_555
O4C_2 C1C 1_555 1_555
O4_2 Zn1B_2 1_555 1_555
Zn1A N1A 1_555 1_555
Zn1A_2 O2 1_555 1_555
Zn1C O3 1_555 1_555
Zn1B O4 1_555 1_555
Zn1B_2 N1B 1_555 1_555
Zn1C_2 O4A 1_555 1_555
Zn1C_3 O2B 1_555 1_555
Zn1B_3 O1B 1_555 1_555
Zn1C_4 O1C 1_555 1_555
Zn1B_4 O2C 1_555 1_555
Zn1C_5 N1C 1_555 1_555
C24B C25B 1_555 1_555
C25B C26B 1_555 1_555
C26B H17B 1_555 1_555
C27B C25B 1_555 1_555
H18B C27B 1_555 1_555
C28B C27B 1_555 1_555
H19B C28B 1_555 1_555
C29B C26B 1_555 1_555
C30B C29B 1_555 1_555
H20B C30B 1_555 1_555
H21B C30B 1_555 1_555
H22B C30B 1_555 1_555
C31B C28B 1_555 1_555
C32B C31B 1_555 1_555
C33B C32B 1_555 1_555
C34B C33B 1_555 1_555
C35B C34B 1_555 1_555
C36B C35B 1_555 1_555
H23B C36B 1_555 1_555
H24B C36B 1_555 1_555
H25B C36B 1_555 1_555
C37B C34B 1_555 1_555
H26B C37B 1_555 1_555
C38B C37B 1_555 1_555
H27B C38B 1_555 1_555
C39B C35B 1_555 1_555
H28B C39B 1_555 1_555
C40B C38B 1_555 1_555
C41B C40B 1_555 1_555
C42B C43B 1_555 1_555
C43B C44B 1_555 1_555
C44B H29B 1_555 1_555
C45B C43B 1_555 1_555
H30B C45B 1_555 1_555
C46B C45B 1_555 1_555
H31B C46B 1_555 1_555
C47B C44B 1_555 1_555
C48B C47B 1_555 1_555
H32B C48B 1_555 1_555
H33B C48B 1_555 1_555
H34B C48B 1_555 1_555
C49B C46B 1_555 1_555
C50B C49B 1_555 1_555
C51B C50B 1_555 1_555
C52B C51B 1_555 1_555
C53B C52B 1_555 1_555
H35B C53B 1_555 1_555
C54B C52B 1_555 1_555
C55B C54B 1_555 1_555
H36B C55B 1_555 1_555
H37B C55B 1_555 1_555
H38B C55B 1_555 1_555
C56B C54B 1_555 1_555
H39B C56B 1_555 1_555
C57B C53B 1_555 1_555
H40B C57B 1_555 1_555
C58B C56B 1_555 1_555
C59B C58B 1_555 1_555
C60B H41B 1_555 1_555
C61B H42B 1_555 1_555
C62B C61B 1_555 1_555
H43B C62B 1_555 1_555
C63B C60B 1_555 1_555
H44B C63B 1_555 1_555
C64B C62B 1_555 1_555
C65B C64B 1_555 1_555
C66B C65B 1_555 1_555
H45B C66B 1_555 1_555
C67B C65B 1_555 1_555
H46B C67B 1_555 1_555
C68B C67B 1_555 1_555
H47B C68B 1_555 1_555
C69B C66B 1_555 1_555
H48B C69B 1_555 1_555
N2B C60B 1_555 1_555
N3B C68B 1_555 1_555
N3_2 Zn3_2 1_555 1_555
O5B C24B 1_555 1_555
O6B C24B 1_555 1_555
O6_2 Zn3 1_555 1_555
O7B Zn2 1_555 1_555
O7_2 Zn2B 1_555 1_555
O8B C41B 1_555 1_555
O8B_2 Zn3 1_555 1_555
O9B C42B 1_555 1_555
O9B_2 Zn2B 1_555 1_555
O10B C42B 1_555 1_555
O10_2 Zn3 1_555 1_555
O11B Zn2 1_555 1_555
O11_2 Zn2B 1_555 1_555
O12B C59B 1_555 1_555
O12B_2 Zn3 1_555 1_555
Zn2B N2B 1_555 1_555
Zn2B_2 O7 1_555 1_555
Zn2B_3 O11 1_555 1_555
Zn2B_4 O9B 1_555 1_555
Zn3_2 O6 1_555 1_555
Zn3B O8 1_555 1_555
Zn3B_2 O12 1_555 1_555
Zn3B_3 O6B 1_555 1_555
Zn3B_4 O10B 1_555 1_555
Zn3B_5 N3B 1_555 1_555
C7 C8 1_555 1_555
C16 C17 1_555 1_555
C20 N1 1_555 1_555
C22 C23 1_555 1_555
O1 Zn1 1_555 1_555
C29 C31 1_555 1_555
C39 C40 1_555 1_555
C47 C49 1_555 1_555
C57 C58 1_555 1_555
C61 N2 1_555 1_555
C63 C64 1_555 1_555
C69 N3 1_555 1_555
O5 Zn2 1_555 1_555
O9 Zn2 1_555 1_555
O10 Zn3_2 1_555 1_555
C1B O4B 1_555 1_555
C1C O3C 1_555 1_555
C7A C8A 1_555 1_555
C7C C8C 1_555 1_555
C7B C8B 1_555 1_555
C16A C17A 1_555 1_555
C16B C17B 1_555 1_555
C16C C17C 1_555 1_555
C18A O2A 1_555 1_555
C20A N1A 1_555 1_555
C20B N1B 1_555 1_555
C20C N1C 1_555 1_555
C21A C23A 1_555 1_555
C22A C23A 1_555 1_555
C22B C23B 1_555 1_555
C22C C23C 1_555 1_555
C23B C23C 1_555 1_555
O1A Zn1A_2 1_555 1_555
O3A Zn1B_2 1_555 1_555
O3B_2 Zn1A_2 1_555 1_555
O4C_2 Zn1A_2 1_555 1_555
C29B C31B 1_555 1_555
C39B C40B 1_555 1_555
C41B O7B 1_555 1_555
C47B C49B 1_555 1_555
C57B C58B 1_555 1_555
C59B O11B 1_555 1_555
C61B N2B 1_555 1_555
C63B C64B 1_555 1_555
C69B N3B 1_555 1_555
O5B Zn2B 1_555 1_555
O8B Zn3_2 1_555 1_555
O12B Zn3_2 1_555 1_555

#END
