
#######################################################################
#
#                 Cambridge Crystallographic Data Centre
#                                CCDC 
#
#######################################################################
#
# If this CIF has been generated from an entry in the Cambridge 
# Structural Database, then it will include bibliographic, chemical, 
# crystal, experimental, refinement or atomic coordinate data resulting 
# from the CCDC's data processing and validation procedures.
#
#######################################################################

data_ADOBEB
_symmetry_cell_setting           tetragonal
_symmetry_space_group_name_H-M   'P -4 n 2'
_symmetry_Int_Tables_number      118
_space_group_name_Hall           'P -4 -2n'
loop_
_symmetry_equiv_pos_site_id
_symmetry_equiv_pos_as_xyz
1 x,y,z
2 -x,-y,z
3 y,-x,-z
4 -y,x,-z
5 1/2+x,1/2-y,1/2+z
6 1/2-x,1/2+y,1/2+z
7 1/2+y,1/2+x,1/2-z
8 1/2-y,1/2-x,1/2-z
_cell_length_a                   17.266(2)
_cell_length_b                   17.266(2)
_cell_length_c                   14.916(3)
_cell_angle_alpha                90
_cell_angle_beta                 90
_cell_angle_gamma                90
_cell_volume                     4446.68
loop_
_atom_site_label
_atom_site_type_symbol
_atom_site_fract_x
_atom_site_fract_y
_atom_site_fract_z
V1 V 0.12164(4) 0.10935(4) 0.12578(5)
V2 V 0.06234(7) -0.06998(8) 0.22769(7)
V3 V 0.18094(5) -0.05098(5) 0.08634(6)
V4 V 0.18608(5) 0.03013(5) -0.08505(6)
Mn1 Mn 0.25722(4) 0.24278(4) 0.2500
C1 C 0.2376(4) 0.4126(4) 0.1800(5)
H1 H 0.2541 0.4224 0.2383
C2 C 0.2311(5) 0.4739(4) 0.1228(5)
H2 H 0.2426 0.5238 0.1423
C3 C 0.1964(4) 0.3271(3) 0.0746(4)
H3 H 0.1837 0.2768 0.0579
C4 C 0.1883(4) 0.3866(4) 0.0119(4)
H4 H 0.1701 0.3757 -0.0454
C5 C 0.2264(3) 0.5725(4) -0.1808(5)
H5 H 0.2398 0.5626 -0.2401
C6 C 0.2256(3) 0.5110(5) -0.1200(5)
H6 H 0.2392 0.4614 -0.1385
C7 C 0.1861(3) 0.6572(4) -0.0711(4)
H7 H 0.1712 0.7068 -0.0541
C8 C 0.1842(4) 0.5997(4) -0.0082(5)
H8 H 0.1694 0.6108 0.0503
C9 C 0.2045(3) 0.5246(4) -0.0321(4)
C10 C 0.2071(3) 0.4611(4) 0.0348(4)
N1 N 0.2219(3) 0.3401(3) 0.1577(3)
N2 N 0.2085(3) 0.6455(3) -0.1569(3)
O1 O 0.1824(2) 0.1652(2) 0.1806(2)
O2 O 0.1284(2) 0.0070(2) 0.1789(3)
O3 O 0.1834(2) 0.0554(2) 0.0374(3)
O4 O 0.0000 0.0000 0.2817(4)
O5 O 0.0999(3) -0.1138(3) 0.3131(3)
O6 O 0.0209(2) 0.1264(2) 0.1786(3)
O7 O 0.1185(2) -0.1327(2) 0.1200(2)
O8 O 0.0753(2) 0.1761(2) 0.0363(3)
O9 O 0.2660(2) -0.0715(3) 0.1226(3)
O10 O 0.2733(2) 0.0392(3) -0.1194(3)
V1A V -0.12164(4) -0.10935(4) 0.12578(5)
V1B V 0.10935(4) -0.12164(4) -0.12578(5)
V1C V -0.10935(4) 0.12164(4) -0.12578(5)
V2A V -0.06234(7) 0.06998(8) 0.22769(7)
V2C V 0.06998(8) 0.06234(7) -0.22769(7)
V2B V -0.06998(8) -0.06234(7) -0.22769(7)
V3C V 0.05098(5) 0.18094(5) -0.08634(6)
V3A V -0.18094(5) 0.05098(5) 0.08634(6)
V3B V -0.05098(5) -0.18094(5) -0.08634(6)
V4C V -0.03013(5) 0.18608(5) 0.08505(6)
V4B V 0.03013(5) -0.18608(5) 0.08505(6)
V4A V -0.18608(5) -0.03013(5) -0.08505(6)
Mn1C Mn 0.75722(4) 0.25722(4) -0.2500
Mn1B Mn 0.24278(4) 0.74278(4) -0.2500
Mn1C_2 Mn -0.24278(4) 0.25722(4) 0.7500
Mn1B_2 Mn 0.24278(4) -0.25722(4) 0.7500
Mn1A Mn -0.25722(4) -0.24278(4) 0.2500
Mn1B_3 Mn 0.24278(4) -0.25722(4) -0.2500
Mn1C_3 Mn -0.24278(4) 0.25722(4) -0.2500
C1C C 0.5874(4) 0.2376(4) -0.1800(5)
C1D C -0.2624(4) 0.0874(4) 0.6800(5)
C1F C -0.0874(4) -0.2624(4) 0.3200(5)
H1C H 0.5776 0.2541 -0.2383
H1D H -0.2459 0.0776 0.7383
H1F H -0.0776 -0.2459 0.2617
C2C C 0.5261(4) 0.2311(5) -0.1228(5)
C2D C -0.2689(5) 0.0261(4) 0.6228(5)
C2F C -0.0261(4) -0.2689(5) 0.3772(5)
H2C H 0.4762 0.2426 -0.1423
H2D H -0.2574 -0.0238 0.6423
H2F H 0.0238 -0.2574 0.3577
C3C C 0.6729(3) 0.1964(4) -0.0746(4)
C3D C -0.3036(4) 0.1729(3) 0.5746(4)
C3F C -0.1729(3) -0.3036(4) 0.4254(4)
H3C H 0.7232 0.1837 -0.0579
H3D H -0.3163 0.2232 0.5579
H3F H -0.2232 -0.3163 0.4421
C4C C 0.6134(4) 0.1883(4) -0.0119(4)
C4D C -0.3117(4) 0.1134(4) 0.5119(4)
C4F C -0.1134(4) -0.3117(4) 0.4881(4)
H4C H 0.6243 0.1701 0.0454
H4D H -0.3299 0.1243 0.4546
H4F H -0.1243 -0.3299 0.5454
C5C C 0.4275(4) 0.2264(3) 0.1808(5)
C5F C 0.0725(4) -0.2736(3) 0.6808(5)
C5D C -0.2736(3) -0.0725(4) 0.3192(5)
H5C H 0.4374 0.2398 0.2401
H5F H 0.0626 -0.2602 0.7401
H5D H -0.2602 -0.0626 0.2599
C6C C 0.4890(5) 0.2256(3) 0.1200(5)
C6F C 0.0110(5) -0.2744(3) 0.6200(5)
C6D C -0.2744(3) -0.0110(5) 0.3800(5)
H6C H 0.5386 0.2392 0.1385
H6F H -0.0386 -0.2608 0.6385
H6D H -0.2608 0.0386 0.3615
C7C C 0.3428(4) 0.1861(3) 0.0711(4)
C7F C 0.1572(4) -0.3139(3) 0.5711(4)
C7D C -0.3139(3) -0.1572(4) 0.4289(4)
H7C H 0.2932 0.1712 0.0541
H7F H 0.2068 -0.3288 0.5541
H7D H -0.3288 -0.2068 0.4459
C8C C 0.4003(4) 0.1842(4) 0.0082(5)
C8F C 0.0997(4) -0.3158(4) 0.5082(5)
C8D C -0.3158(4) -0.0997(4) 0.4918(5)
H8C H 0.3892 0.1694 -0.0503
H8F H 0.1108 -0.3306 0.4497
H8D H -0.3306 -0.1108 0.5503
C9C C 0.4754(4) 0.2045(3) 0.0321(4)
C9F C 0.0246(4) -0.2955(3) 0.5321(4)
C9D C -0.2955(3) -0.0246(4) 0.4679(4)
C10C C 0.5389(4) 0.2071(3) -0.0348(4)
C10D C -0.2929(3) 0.0389(4) 0.5348(4)
C10F C -0.0389(4) -0.2929(3) 0.4652(4)
N1G N 0.1599(3) 0.2781(3) 0.3423(3)
N1C N 0.6599(3) 0.2219(3) -0.1577(3)
N1D N -0.2781(3) 0.1599(3) 0.6577(3)
N1A N -0.2219(3) -0.3401(3) 0.1577(3)
N1F N -0.1599(3) -0.2781(3) 0.3423(3)
N2C N 0.3545(3) 0.2085(3) 0.1569(3)
N2E N 0.2915(3) 0.1455(3) 0.3431(3)
N2F N 0.1455(3) -0.2915(3) 0.6569(3)
N2B N -0.3545(3) -0.2085(3) 0.1569(3)
N2D N -0.2915(3) -0.1455(3) 0.3431(3)
O1G O 0.3348(2) 0.3176(2) 0.3194(2)
O1A O -0.1824(2) -0.1652(2) 0.1806(2)
O1B O 0.1652(2) -0.1824(2) -0.1806(2)
O1C O -0.1652(2) 0.1824(2) -0.1806(2)
O1F O -0.3348(2) -0.3176(2) 0.3194(2)
O2A O -0.1284(2) -0.0070(2) 0.1789(3)
O2C O -0.0070(2) 0.1284(2) -0.1789(3)
O2B O 0.0070(2) -0.1284(2) -0.1789(3)
O3C O -0.0554(2) 0.1834(2) -0.0374(3)
O3B O 0.0554(2) -0.1834(2) -0.0374(3)
O3A O -0.1834(2) -0.0554(2) 0.0374(3)
O4B O 0.0000 0.0000 -0.2817(4)
O5A O -0.0999(3) 0.1138(3) 0.3131(3)
O5C O 0.1138(3) 0.0999(3) -0.3131(3)
O5B O -0.1138(3) -0.0999(3) -0.3131(3)
O6A O -0.0209(2) -0.1264(2) 0.1786(3)
O6B O 0.1264(2) -0.0209(2) -0.1786(3)
O6C O -0.1264(2) 0.0209(2) -0.1786(3)
O7C O 0.1327(2) 0.1185(2) -0.1200(2)
O7A O -0.1185(2) 0.1327(2) 0.1200(2)
O7B O -0.1327(2) -0.1185(2) -0.1200(2)
O8B O 0.1761(2) -0.0753(2) -0.0363(3)
O8A O -0.0753(2) -0.1761(2) 0.0363(3)
O8C O -0.1761(2) 0.0753(2) -0.0363(3)
O9C O 0.0715(3) 0.2660(2) -0.1226(3)
O9A O -0.2660(2) 0.0715(3) 0.1226(3)
O9B O -0.0715(3) -0.2660(2) -0.1226(3)
O10C O -0.0392(3) 0.2733(2) 0.1194(3)
O10B O 0.0392(3) -0.2733(2) 0.1194(3)
O10A O -0.2733(2) -0.0392(3) -0.1194(3)
Cl1 Cl 0.0000 0.0000 0.0000
O11? O 0.0000 0.0000 0.2040(13)
loop_
_geom_bond_atom_site_label_1
_geom_bond_atom_site_label_2
_geom_bond_site_symmetry_1
_geom_bond_site_symmetry_2
V1 O1 1_555 1_555
V2 O2 1_555 1_555
V3 O2 1_555 1_555
V4 O3 1_555 1_555
Mn1 N1 1_555 1_555
C1 H1 1_555 1_555
C2 C1 1_555 1_555
H2 C2 1_555 1_555
C3 H3 1_555 1_555
C4 C3 1_555 1_555
H4 C4 1_555 1_555
C5 H5 1_555 1_555
C6 C5 1_555 1_555
H6 C6 1_555 1_555
C7 H7 1_555 1_555
C8 C7 1_555 1_555
H8 C8 1_555 1_555
C9 C6 1_555 1_555
C10 C2 1_555 1_555
N1 C1 1_555 1_555
N2 C5 1_555 1_555
O1 Mn1 1_555 1_555
O2 V1 1_555 1_555
O3 V1 1_555 1_555
O4 V2 1_555 1_555
O5 V2 1_555 1_555
O6 V1 1_555 1_555
O7 V2 1_555 1_555
O8 V1 1_555 1_555
O9 V3 1_555 1_555
O10 V4 1_555 1_555
V1A O1A 1_555 1_555
V1B O1B 1_555 1_555
V1C O1C 1_555 1_555
V2A O4 1_555 1_555
V2C O2C 1_555 1_555
V2B O2B 1_555 1_555
V3C O8 1_555 1_555
V3A O2A 1_555 1_555
V3B O2B 1_555 1_555
V4C O6 1_555 1_555
V4B O7 1_555 1_555
V4A O3A 1_555 1_555
Mn1C N1C 1_555 1_555
Mn1B N2 1_555 1_555
Mn1C_2 N1D 1_555 1_555
Mn1B_2 N2F 1_555 1_555
Mn1A N1A 1_555 1_555
Mn1B_3 O1B 1_555 1_555
Mn1C_3 O1C 1_555 1_555
C1C H1C 1_555 1_555
C1D H1D 1_555 1_555
C1F H1F 1_555 1_555
C2C C1C 1_555 1_555
C2D C1D 1_555 1_555
C2F C1F 1_555 1_555
H2C C2C 1_555 1_555
H2D C2D 1_555 1_555
H2F C2F 1_555 1_555
C3C H3C 1_555 1_555
C3D H3D 1_555 1_555
C3F H3F 1_555 1_555
C4C C3C 1_555 1_555
C4D C3D 1_555 1_555
C4F C3F 1_555 1_555
H4C C4C 1_555 1_555
H4D C4D 1_555 1_555
H4F C4F 1_555 1_555
C5C H5C 1_555 1_555
C5F H5F 1_555 1_555
C5D H5D 1_555 1_555
C6C C5C 1_555 1_555
C6F C5F 1_555 1_555
C6D C5D 1_555 1_555
H6C C6C 1_555 1_555
H6F C6F 1_555 1_555
H6D C6D 1_555 1_555
C7C H7C 1_555 1_555
C7F H7F 1_555 1_555
C7D H7D 1_555 1_555
C8C C7C 1_555 1_555
C8F C7F 1_555 1_555
C8D C7D 1_555 1_555
H8C C8C 1_555 1_555
H8F C8F 1_555 1_555
H8D C8D 1_555 1_555
C9C C6C 1_555 1_555
C9F C6F 1_555 1_555
C9D C6D 1_555 1_555
C10C C2C 1_555 1_555
C10D C2D 1_555 1_555
C10F C2F 1_555 1_555
N1G Mn1 1_555 1_555
N1C C1C 1_555 1_555
N1D C1D 1_555 1_555
N1F Mn1A 1_555 1_555
N2C Mn1 1_555 1_555
N2E Mn1 1_555 1_555
N2F C5F 1_555 1_555
N2B Mn1A 1_555 1_555
N2D Mn1A 1_555 1_555
O1G Mn1 1_555 1_555
O1A Mn1A 1_555 1_555
O1F Mn1A 1_555 1_555
O2A V1A 1_555 1_555
O2C V1C 1_555 1_555
O2B V1B 1_555 1_555
O3C V1C 1_555 1_555
O3B V1B 1_555 1_555
O3A V1A 1_555 1_555
O4B V2C 1_555 1_555
O5A V2A 1_555 1_555
O5C V2C 1_555 1_555
O5B V2B 1_555 1_555
O6A V2 1_555 1_555
O6B V4 1_555 1_555
O6C V1C 1_555 1_555
O7C V4 1_555 1_555
O7A V2A 1_555 1_555
O7B V2B 1_555 1_555
O8B V3 1_555 1_555
O8A V1A 1_555 1_555
O8C V1C 1_555 1_555
O9C V3C 1_555 1_555
O9A V3A 1_555 1_555
O9B V3B 1_555 1_555
O10C V4C 1_555 1_555
O10B V4B 1_555 1_555
O10A V4A 1_555 1_555
V3 O3 1_555 1_555
V3 O7 1_555 1_555
V4 O8B 1_555 1_555
C3 N1 1_555 1_555
C4 C10 1_555 1_555
C7 N2 1_555 1_555
C8 C9 1_555 1_555
C9 C10 1_555 1_555
O6 V2A 1_555 1_555
O8 V4C 1_555 1_555
V1A O6A 1_555 1_555
V1B O6B 1_555 1_555
V1B O8B 1_555 1_555
V2A O2A 1_555 1_555
V2C O6B 1_555 1_555
V2C O7C 1_555 1_555
V2B O4B 1_555 1_555
V2B O6C 1_555 1_555
V3C O2C 1_555 1_555
V3C O3C 1_555 1_555
V3C O7C 1_555 1_555
V3A O3A 1_555 1_555
V3A O7A 1_555 1_555
V3A O8C 1_555 1_555
V3B O3B 1_555 1_555
V3B O7B 1_555 1_555
V3B O8A 1_555 1_555
V4C O3C 1_555 1_555
V4C O7A 1_555 1_555
V4B O3B 1_555 1_555
V4B O6A 1_555 1_555
V4B O8A 1_555 1_555
V4A O6C 1_555 1_555
V4A O7B 1_555 1_555
V4A O8C 1_555 1_555
C1F N1F 1_555 1_555
C3C N1C 1_555 1_555
C3D N1D 1_555 1_555
C3F N1F 1_555 1_555
C4C C10C 1_555 1_555
C4D C10D 1_555 1_555
C4F C10F 1_555 1_555
C5C N2C 1_555 1_555
C5D N2D 1_555 1_555
C7C N2C 1_555 1_555
C7F N2F 1_555 1_555
C7D N2D 1_555 1_555
C8C C9C 1_555 1_555
C8F C9F 1_555 1_555
C8D C9D 1_555 1_555
C9C C10C 1_555 1_555
C9F C10F 1_555 1_555
C9D C10D 1_555 1_555

#END
