
#######################################################################
#
#                 Cambridge Crystallographic Data Centre
#                                CCDC 
#
#######################################################################
#
# If this CIF has been generated from an entry in the Cambridge 
# Structural Database, then it will include bibliographic, chemical, 
# crystal, experimental, refinement or atomic coordinate data resulting 
# from the CCDC's data processing and validation procedures.
#
#######################################################################

data_ADOCAY
_symmetry_cell_setting           tetragonal
_symmetry_space_group_name_H-M   'P -4 n 2'
_symmetry_Int_Tables_number      118
_space_group_name_Hall           'P -4 -2n'
loop_
_symmetry_equiv_pos_site_id
_symmetry_equiv_pos_as_xyz
1 x,y,z
2 -x,-y,z
3 y,-x,-z
4 -y,x,-z
5 1/2+x,1/2-y,1/2+z
6 1/2-x,1/2+y,1/2+z
7 1/2+y,1/2+x,1/2-z
8 1/2-y,1/2-x,1/2-z
_cell_length_a                   17.0616(5)
_cell_length_b                   17.0616(5)
_cell_length_c                   14.6533(6)
_cell_angle_alpha                90
_cell_angle_beta                 90
_cell_angle_gamma                90
_cell_volume                     4265.55
loop_
_atom_site_label
_atom_site_type_symbol
_atom_site_fract_x
_atom_site_fract_y
_atom_site_fract_z
V1 V 0.12123(4) 0.11295(4) 0.12829(4)
V2 V 0.18551(4) -0.04750(4) 0.08878(6)
V3 V 0.18854(4) 0.03374(4) -0.08729(6)
V4 V 0.06638(5) -0.07086(5) 0.23028(4)
Ni1 Ni 0.25361(3) 0.24639(3) 0.2500
O1 O 0.18184(16) 0.17090(17) 0.18179(15)
O2 O 0.18500(18) 0.05886(17) 0.0383(2)
O3 O 0.13001(19) 0.00932(17) 0.1828(2)
O4 O 0.2719(2) -0.0674(2) 0.1236(3)
O5 O 0.12177(17) -0.13166(18) 0.12283(17)
O6 O 0.07144(18) 0.17792(19) 0.0372(2)
O7 O 0.2766(2) 0.0440(2) -0.1220(2)
O8 O 0.0186(2) 0.13000(18) 0.1817(2)
O9 O 0.0000 0.0000 0.2843(2)
O10 O 0.1055(2) -0.1135(2) 0.31668(18)
N1 N 0.3473(2) 0.2158(2) 0.1593(3)
N2 N 0.2212(2) 0.3398(2) 0.1605(3)
C1 C 0.1949(3) 0.3295(3) 0.0742(4)
H1 H 0.1803 0.2792 0.0564
C2 C 0.1885(3) 0.3887(3) 0.0117(4)
H2 H 0.1700 0.3783 -0.0467
C3 C 0.2099(3) 0.4645(3) 0.0361(4)
C4 C 0.3351(3) 0.1953(3) 0.0731(4)
H3 H 0.2846 0.1816 0.0555
C5 C 0.4214(3) 0.2289(3) 0.1849(4)
H4 H 0.4313 0.2405 0.2458
C6 C 0.4843(3) 0.2257(3) 0.1247(4)
H5 H 0.5351 0.2347 0.1454
C7 C 0.2089(3) 0.5296(3) -0.0321(4)
C8 C 0.3941(3) 0.1932(3) 0.0078(4)
H6 H 0.3820 0.1811 -0.0525
C9 C 0.2368(3) 0.4137(3) 0.1833(4)
H7 H 0.2510 0.4237 0.2435
C10 C 0.2336(3) 0.4761(3) 0.1245(4)
H8 H 0.2474 0.5260 0.1444
V1B V 0.11295(4) -0.12123(4) -0.12829(4)
V1A V -0.12123(4) -0.11295(4) 0.12829(4)
V1C V -0.11295(4) 0.12123(4) -0.12829(4)
V2C V 0.04750(4) 0.18551(4) -0.08878(6)
V2B V -0.04750(4) -0.18551(4) -0.08878(6)
V2A V -0.18551(4) 0.04750(4) 0.08878(6)
V3B V 0.03374(4) -0.18854(4) 0.08729(6)
V3C V -0.03374(4) 0.18854(4) 0.08729(6)
V3A V -0.18854(4) -0.03374(4) -0.08729(6)
V4A V -0.06638(5) 0.07086(5) 0.23028(4)
V4C V 0.07086(5) 0.06638(5) -0.23028(4)
V4B V -0.07086(5) -0.06638(5) -0.23028(4)
Ni1B Ni 0.24639(3) 0.74639(3) -0.2500
Ni1C Ni 0.75361(3) 0.25361(3) -0.2500
Ni1B_2 Ni 0.24639(3) -0.25361(3) 0.7500
Ni1C_2 Ni -0.24639(3) 0.25361(3) 0.7500
Ni1B_3 Ni 0.24639(3) -0.25361(3) -0.2500
Ni1A Ni -0.25361(3) -0.24639(3) 0.2500
Ni1C_3 Ni -0.24639(3) 0.25361(3) -0.2500
O1G O 0.32910(17) 0.31816(16) 0.31821(15)
O1B O 0.17090(17) -0.18184(16) -0.18179(15)
O1A O -0.18184(16) -0.17090(17) 0.18179(15)
O1C O -0.17090(17) 0.18184(16) -0.18179(15)
O1F O -0.32910(17) -0.31816(16) 0.31821(15)
O2B O 0.05886(17) -0.18500(18) -0.0383(2)
O2C O -0.05886(17) 0.18500(18) -0.0383(2)
O2A O -0.18500(18) -0.05886(17) 0.0383(2)
O3C O -0.00932(17) 0.13001(19) -0.1828(2)
O3A O -0.13001(19) -0.00932(17) 0.1828(2)
O3B O 0.00932(17) -0.13001(19) -0.1828(2)
O4C O 0.0674(2) 0.2719(2) -0.1236(3)
O4B O -0.0674(2) -0.2719(2) -0.1236(3)
O4A O -0.2719(2) 0.0674(2) 0.1236(3)
O5C O 0.13166(18) 0.12177(17) -0.12283(17)
O5A O -0.12177(17) 0.13166(18) 0.12283(17)
O5B O -0.13166(18) -0.12177(17) -0.12283(17)
O6B O 0.17792(19) -0.07144(18) -0.0372(2)
O6A O -0.07144(18) -0.17792(19) 0.0372(2)
O6C O -0.17792(19) 0.07144(18) -0.0372(2)
O7B O 0.0440(2) -0.2766(2) 0.1220(2)
O7C O -0.0440(2) 0.2766(2) 0.1220(2)
O7A O -0.2766(2) -0.0440(2) -0.1220(2)
O8B O 0.13000(18) -0.0186(2) -0.1817(2)
O8A O -0.0186(2) -0.13000(18) 0.1817(2)
O8C O -0.13000(18) 0.0186(2) -0.1817(2)
O9B O 0.0000 0.0000 -0.2843(2)
O10A O -0.1055(2) 0.1135(2) 0.31668(18)
O10C O 0.1135(2) 0.1055(2) -0.31668(18)
O10B O -0.1135(2) -0.1055(2) -0.31668(18)
N1G N 0.2842(2) 0.1527(2) 0.3407(3)
N1B N 0.2158(2) 0.6527(2) -0.1593(3)
N1E N 0.1527(2) -0.2842(2) 0.6593(3)
N1A N -0.3473(2) -0.2158(2) 0.1593(3)
N1F N -0.2842(2) -0.1527(2) 0.3407(3)
N2G N 0.1602(2) 0.2788(2) 0.3395(3)
N2C N 0.6602(2) 0.2212(2) -0.1605(3)
N2D N -0.2788(2) 0.1602(2) 0.6605(3)
N2A N -0.2212(2) -0.3398(2) 0.1605(3)
N2F N -0.1602(2) -0.2788(2) 0.3395(3)
C1C C 0.6705(3) 0.1949(3) -0.0742(4)
C1D C -0.3051(3) 0.1705(3) 0.5742(4)
C1F C -0.1705(3) -0.3051(3) 0.4258(4)
H1C H 0.7208 0.1803 -0.0564
H1D H -0.3197 0.2208 0.5564
H1F H -0.2208 -0.3197 0.4436
C2C C 0.6113(3) 0.1885(3) -0.0117(4)
C2D C -0.3115(3) 0.1113(3) 0.5117(4)
C2F C -0.1113(3) -0.3115(3) 0.4883(4)
H2C H 0.6217 0.1700 0.0467
H2D H -0.3300 0.1217 0.4533
H2F H -0.1217 -0.3300 0.5467
C3C C 0.5355(3) 0.2099(3) -0.0361(4)
C3D C -0.2901(3) 0.0355(3) 0.5361(4)
C3F C -0.0355(3) -0.2901(3) 0.4639(4)
C4B C 0.1953(3) 0.6649(3) -0.0731(4)
C4E C 0.1649(3) -0.3047(3) 0.5731(4)
C4F C -0.3047(3) -0.1649(3) 0.4269(4)
H3B H 0.1816 0.7154 -0.0555
H3E H 0.2154 -0.3184 0.5555
H3F H -0.3184 -0.2154 0.4445
C5B C 0.2289(3) 0.5786(3) -0.1849(4)
C5E C 0.0786(3) -0.2711(3) 0.6849(4)
C5F C -0.2711(3) -0.0786(3) 0.3151(4)
H4B H 0.2405 0.5687 -0.2458
H4E H 0.0687 -0.2595 0.7458
H4F H -0.2595 -0.0687 0.2542
C6B C 0.2257(3) 0.5157(3) -0.1247(4)
C6E C 0.0157(3) -0.2743(3) 0.6247(4)
C6F C -0.2743(3) -0.0157(3) 0.3753(4)
H5B H 0.2347 0.4649 -0.1454
H5E H -0.0351 -0.2653 0.6454
H5F H -0.2653 0.0351 0.3546
C7C C 0.4704(3) 0.2089(3) 0.0321(4)
C7F C 0.0296(3) -0.2911(3) 0.5321(4)
C7D C -0.2911(3) -0.0296(3) 0.4679(4)
C8B C 0.1932(3) 0.6059(3) -0.0078(4)
C8E C 0.1059(3) -0.3068(3) 0.5078(4)
C8F C -0.3068(3) -0.1059(3) 0.4922(4)
H6B H 0.1811 0.6180 0.0525
H6E H 0.1180 -0.3189 0.4475
H6F H -0.3189 -0.1180 0.5525
C9C C 0.5863(3) 0.2368(3) -0.1833(4)
C9D C -0.2632(3) 0.0863(3) 0.6833(4)
C9F C -0.0863(3) -0.2632(3) 0.3167(4)
H7C H 0.5763 0.2510 -0.2435
H7D H -0.2490 0.0763 0.7435
H7F H -0.0763 -0.2490 0.2565
C10C C 0.5239(3) 0.2336(3) -0.1245(4)
C10D C -0.2664(3) 0.0239(3) 0.6245(4)
C10F C -0.0239(3) -0.2664(3) 0.3755(4)
H8C H 0.4740 0.2474 -0.1444
H8D H -0.2526 -0.0260 0.6444
H8F H 0.0260 -0.2526 0.3556
F1 F 0.0000 0.0000 0.0000
loop_
_geom_bond_atom_site_label_1
_geom_bond_atom_site_label_2
_geom_bond_site_symmetry_1
_geom_bond_site_symmetry_2
V1 O1 1_555 1_555
V2 O2 1_555 1_555
V3 O2 1_555 1_555
V4 O3 1_555 1_555
Ni1 O1 1_555 1_555
O2 V1 1_555 1_555
O3 V1 1_555 1_555
O4 V2 1_555 1_555
O5 V2 1_555 1_555
O6 V1 1_555 1_555
O7 V3 1_555 1_555
O8 V1 1_555 1_555
O9 V4 1_555 1_555
O10 V4 1_555 1_555
N1 Ni1 1_555 1_555
N2 Ni1 1_555 1_555
C1 N2 1_555 1_555
H1 C1 1_555 1_555
C2 C1 1_555 1_555
H2 C2 1_555 1_555
C3 C2 1_555 1_555
C4 N1 1_555 1_555
H3 C4 1_555 1_555
C5 N1 1_555 1_555
H4 C5 1_555 1_555
C6 C5 1_555 1_555
H5 C6 1_555 1_555
C7 C3 1_555 1_555
C8 C4 1_555 1_555
H6 C8 1_555 1_555
C9 N2 1_555 1_555
H7 C9 1_555 1_555
C10 C3 1_555 1_555
H8 C10 1_555 1_555
V1B O1B 1_555 1_555
V1A O1A 1_555 1_555
V1C O1C 1_555 1_555
V2C O6 1_555 1_555
V2B O2B 1_555 1_555
V2A O2A 1_555 1_555
V3B O5 1_555 1_555
V3C O6 1_555 1_555
V3A O2A 1_555 1_555
V4A O8 1_555 1_555
V4C O3C 1_555 1_555
V4B O3B 1_555 1_555
Ni1B N1B 1_555 1_555
Ni1C N2C 1_555 1_555
Ni1B_2 N1E 1_555 1_555
Ni1C_2 N2D 1_555 1_555
Ni1B_3 O1B 1_555 1_555
Ni1A O1A 1_555 1_555
Ni1C_3 O1C 1_555 1_555
O1G Ni1 1_555 1_555
O1F Ni1A 1_555 1_555
O2B V1B 1_555 1_555
O2C V1C 1_555 1_555
O2A V1A 1_555 1_555
O3C V1C 1_555 1_555
O3A V1A 1_555 1_555
O3B V1B 1_555 1_555
O4C V2C 1_555 1_555
O4B V2B 1_555 1_555
O4A V2A 1_555 1_555
O5C V3 1_555 1_555
O5A V2A 1_555 1_555
O5B V2B 1_555 1_555
O6B V2 1_555 1_555
O6A V1A 1_555 1_555
O6C V1C 1_555 1_555
O7B V3B 1_555 1_555
O7C V3C 1_555 1_555
O7A V3A 1_555 1_555
O8B V3 1_555 1_555
O8A V4 1_555 1_555
O8C V1C 1_555 1_555
O9B V4C 1_555 1_555
O10A V4A 1_555 1_555
O10C V4C 1_555 1_555
O10B V4B 1_555 1_555
N1G Ni1 1_555 1_555
N1B C4B 1_555 1_555
N1E C4E 1_555 1_555
N1A Ni1A 1_555 1_555
N1F Ni1A 1_555 1_555
N2G Ni1 1_555 1_555
N2C C1C 1_555 1_555
N2D C1D 1_555 1_555
N2A Ni1A 1_555 1_555
N2F Ni1A 1_555 1_555
C1C H1C 1_555 1_555
C1D H1D 1_555 1_555
C1F N2F 1_555 1_555
H1F C1F 1_555 1_555
C2C C1C 1_555 1_555
C2D C1D 1_555 1_555
C2F C1F 1_555 1_555
H2C C2C 1_555 1_555
H2D C2D 1_555 1_555
H2F C2F 1_555 1_555
C3C C2C 1_555 1_555
C3D C2D 1_555 1_555
C3F C2F 1_555 1_555
C4B H3B 1_555 1_555
C4E H3E 1_555 1_555
C4F N1F 1_555 1_555
H3F C4F 1_555 1_555
C5B N1B 1_555 1_555
C5E N1E 1_555 1_555
C5F N1F 1_555 1_555
H4B C5B 1_555 1_555
H4E C5E 1_555 1_555
H4F C5F 1_555 1_555
C6B C7 1_555 1_555
C6E C5E 1_555 1_555
C6F C5F 1_555 1_555
H5B C6B 1_555 1_555
H5E C6E 1_555 1_555
H5F C6F 1_555 1_555
C7C C6 1_555 1_555
C7F C3F 1_555 1_555
C7D C3D 1_555 1_555
C8B C7 1_555 1_555
C8E C4E 1_555 1_555
C8F C4F 1_555 1_555
H6B C8B 1_555 1_555
H6E C8E 1_555 1_555
H6F C8F 1_555 1_555
C9C N2C 1_555 1_555
C9D N2D 1_555 1_555
C9F N2F 1_555 1_555
H7C C9C 1_555 1_555
H7D C9D 1_555 1_555
H7F C9F 1_555 1_555
C10C C3C 1_555 1_555
C10D C3D 1_555 1_555
C10F C3F 1_555 1_555
H8C C10C 1_555 1_555
H8D C10D 1_555 1_555
H8F C10F 1_555 1_555
V2 O3 1_555 1_555
V3 O6B 1_555 1_555
V4 O5 1_555 1_555
O8 V3C 1_555 1_555
O9 V4A 1_555 1_555
C8 C7C 1_555 1_555
C9 C10 1_555 1_555
V1B O6B 1_555 1_555
V1B O8B 1_555 1_555
V1A O8A 1_555 1_555
V2C O2C 1_555 1_555
V2C O3C 1_555 1_555
V2C O5C 1_555 1_555
V2B O3B 1_555 1_555
V2B O6A 1_555 1_555
V2A O3A 1_555 1_555
V2A O6C 1_555 1_555
V3B O2B 1_555 1_555
V3B O6A 1_555 1_555
V3B O8A 1_555 1_555
V3C O2C 1_555 1_555
V3C O5A 1_555 1_555
V3A O5B 1_555 1_555
V3A O6C 1_555 1_555
V3A O8C 1_555 1_555
V4A O3A 1_555 1_555
V4A O5A 1_555 1_555
V4C O5C 1_555 1_555
V4C O8B 1_555 1_555
V4B O5B 1_555 1_555
V4B O8C 1_555 1_555
V4B O9B 1_555 1_555
C3C C7C 1_555 1_555
C4B C8B 1_555 1_555
C5B C6B 1_555 1_555
C6E C7F 1_555 1_555
C6F C7D 1_555 1_555
C7F C8E 1_555 1_555
C7D C8F 1_555 1_555
C9C C10C 1_555 1_555
C9D C10D 1_555 1_555
C9F C10F 1_555 1_555

#END
