
#######################################################################
#
#                 Cambridge Crystallographic Data Centre
#                                CCDC 
#
#######################################################################
#
# If this CIF has been generated from an entry in the Cambridge 
# Structural Database, then it will include bibliographic, chemical, 
# crystal, experimental, refinement or atomic coordinate data resulting 
# from the CCDC's data processing and validation procedures.
#
#######################################################################

data_ADOCIG
_symmetry_cell_setting           tetragonal
_symmetry_space_group_name_H-M   'P -4 n 2'
_symmetry_Int_Tables_number      118
_space_group_name_Hall           'P -4 -2n'
loop_
_symmetry_equiv_pos_site_id
_symmetry_equiv_pos_as_xyz
1 x,y,z
2 -x,-y,z
3 y,-x,-z
4 -y,x,-z
5 1/2+x,1/2-y,1/2+z
6 1/2-x,1/2+y,1/2+z
7 1/2+y,1/2+x,1/2-z
8 1/2-y,1/2-x,1/2-z
_cell_length_a                   17.091(2)
_cell_length_b                   17.091(2)
_cell_length_c                   14.611(3)
_cell_angle_alpha                90
_cell_angle_beta                 90
_cell_angle_gamma                90
_cell_volume                     4267.91
loop_
_atom_site_label
_atom_site_type_symbol
_atom_site_fract_x
_atom_site_fract_y
_atom_site_fract_z
Ni1 Ni 0.24637(4) 0.25363(4) 0.7500
V1 V 0.37875(5) 0.38677(4) 0.62812(4)
V2 V 0.68546(5) 0.45257(5) 0.58869(7)
V3 V 0.53319(5) 0.31137(5) 0.58696(7)
V4 V 0.56621(6) 0.42895(6) 0.73015(5)
C1 C 0.0785(3) 0.2727(4) 0.6840(4)
H1 H 0.0687 0.2615 0.7452
C2 C 0.0160(3) 0.2756(4) 0.6256(4)
H2 H -0.0344 0.2669 0.6472
C3 C 0.0287(3) 0.2922(3) 0.5321(4)
C4 C 0.1645(3) 0.3049(4) 0.5733(4)
H3 H 0.2150 0.3187 0.5557
C5 C -0.1719(3) 0.3046(3) 0.4264(4)
H4 H -0.2223 0.3182 0.4446
C6 C -0.1119(4) 0.3119(3) 0.4876(4)
H5 H -0.1222 0.3313 0.5459
C7 C -0.0364(3) 0.2908(3) 0.4647(4)
C8 C -0.0863(4) 0.2637(3) 0.3155(4)
H6 H -0.0765 0.2497 0.2551
C9 C -0.0232(4) 0.2680(3) 0.3748(4)
H7 H 0.0270 0.2558 0.3548
C10 C 0.1053(4) 0.3066(4) 0.5070(4)
H8 H 0.1175 0.3175 0.4463
N1 N 0.1525(3) 0.2847(2) 0.6589(3)
N2 N 0.2783(2) 0.1603(2) 0.6603(3)
O1 O 0.5000 0.5000 0.7826(3)
O2 O 0.4812(2) 0.3705(2) 0.6821(3)
O3 O 0.6040(3) 0.3867(3) 0.8176(2)
O4 O 0.6205(2) 0.3690(2) 0.6232(2)
O5 O 0.3691(2) 0.4905(2) 0.6822(3)
O6 O 0.7716(2) 0.4332(3) 0.6246(3)
O7 O 0.3138(2) 0.4409(2) 0.5393(3)
O8 O 0.4272(2) 0.3202(2) 0.5370(3)
O9 O 0.5447(3) 0.2240(2) 0.6236(3)
O10 O 0.31866(19) 0.32846(19) 0.68219(17)
Ni1C Ni -0.25363(4) 0.24637(4) 0.2500
Ni1B Ni 0.25363(4) -0.24637(4) 0.2500
Ni1B_2 Ni 0.25363(4) 0.75363(4) 1.2500
Ni1C_2 Ni 0.74637(4) 0.24637(4) 1.2500
Ni1A Ni 0.75363(4) 0.74637(4) 0.7500
Ni1C_3 Ni 0.74637(4) 0.24637(4) 0.2500
Ni1B_3 Ni 0.25363(4) 0.75363(4) 0.2500
V1A V 0.62125(5) 0.61323(4) 0.62812(4)
V1C V 0.61323(4) 0.37875(5) 0.37188(4)
V1B V 0.38677(4) 0.62125(5) 0.37188(4)
V2A V 0.31454(5) 0.54743(5) 0.58869(7)
V2B V 0.45257(5) 0.31454(5) 0.41131(7)
V2C V 0.54743(5) 0.68546(5) 0.41131(7)
V3B V 0.31137(5) 0.46681(5) 0.41304(7)
V3C V 0.68863(5) 0.53319(5) 0.41304(7)
V3A V 0.46681(5) 0.68863(5) 0.58696(7)
V4A V 0.43379(6) 0.57105(6) 0.73015(5)
V4B V 0.42895(6) 0.43379(6) 0.26985(5)
V4C V 0.57105(6) 0.56621(6) 0.26985(5)
C1B C 0.2727(4) -0.0785(3) 0.3160(4)
C1E C 0.4215(3) 0.7727(4) 1.1840(4)
C1F C 0.7727(4) 0.5785(3) 0.8160(4)
H1B H 0.2615 -0.0687 0.2548
H1E H 0.4313 0.7615 1.2452
H1F H 0.7615 0.5687 0.7548
C2B C 0.2756(4) -0.0160(3) 0.3744(4)
C2E C 0.4840(3) 0.7756(4) 1.1256(4)
C2F C 0.7756(4) 0.5160(3) 0.8744(4)
H2B H 0.2669 0.0344 0.3528
H2E H 0.5344 0.7669 1.1472
H2F H 0.7669 0.4656 0.8528
C3B C 0.2922(3) -0.0287(3) 0.4679(4)
C3E C 0.4713(3) 0.7922(3) 1.0321(4)
C3F C 0.7922(3) 0.5287(3) 0.9679(4)
C4B C 0.3049(4) -0.1645(3) 0.4267(4)
C4E C 0.3355(3) 0.8049(4) 1.0733(4)
C4F C 0.8049(4) 0.6645(3) 0.9267(4)
H3B H 0.3187 -0.2150 0.4443
H3E H 0.2850 0.8187 1.0557
H3F H 0.8187 0.7150 0.9443
C5B C 0.3046(3) 0.1719(3) 0.5736(4)
C5F C 0.8046(3) 0.3281(3) 1.0736(4)
C5E C 0.6719(3) 0.8046(3) 0.9264(4)
H4B H 0.3182 0.2223 0.5554
H4F H 0.8182 0.2777 1.0554
H4E H 0.7223 0.8182 0.9446
C6B C 0.3119(3) 0.1119(4) 0.5124(4)
C6F C 0.8119(3) 0.3881(4) 1.0124(4)
C6E C 0.6119(4) 0.8119(3) 0.9876(4)
H5B H 0.3313 0.1222 0.4541
H5F H 0.8313 0.3778 0.9541
H5E H 0.6222 0.8313 1.0459
C7B C 0.2908(3) 0.0364(3) 0.5353(4)
C7F C 0.7908(3) 0.4636(3) 1.0353(4)
C7E C 0.5364(3) 0.7908(3) 0.9647(4)
C8B C 0.2637(3) 0.0863(4) 0.6845(4)
C8F C 0.7637(3) 0.4137(4) 1.1845(4)
C8E C 0.5863(4) 0.7637(3) 0.8155(4)
H6B H 0.2497 0.0765 0.7449
H6F H 0.7497 0.4235 1.2449
H6E H 0.5765 0.7497 0.7551
C9B C 0.2680(3) 0.0232(4) 0.6252(4)
C9F C 0.7680(3) 0.4768(4) 1.1252(4)
C9E C 0.5232(4) 0.7680(3) 0.8748(4)
H7B H 0.2558 -0.0270 0.6452
H7F H 0.7558 0.5270 1.1452
H7E H 0.4730 0.7558 0.8548
C10B C 0.3066(4) -0.1053(4) 0.4930(4)
C10E C 0.3947(4) 0.8066(4) 1.0070(4)
C10F C 0.8066(4) 0.6053(4) 0.9930(4)
H8B H 0.3175 -0.1175 0.5537
H8E H 0.3825 0.8175 0.9463
H8F H 0.8175 0.6175 1.0537
N1G N 0.2153(2) 0.3475(3) 0.8411(3)
N1B N 0.2847(2) -0.1525(3) 0.3411(3)
N1E N 0.3475(3) 0.7847(2) 1.1589(3)
N1A N 0.8475(3) 0.7153(2) 0.6589(3)
N1F N 0.7847(2) 0.6525(3) 0.8411(3)
N2G N 0.3397(2) 0.2217(2) 0.8397(3)
N2C N -0.1603(2) 0.2783(2) 0.3397(3)
N2D N 0.7783(2) 0.3397(2) 1.1603(3)
N2A N 0.7217(2) 0.8397(2) 0.6603(3)
N2F N 0.6603(2) 0.7783(2) 0.8397(3)
O1B O 0.5000 0.5000 0.2174(3)
O2A O 0.5188(2) 0.6295(2) 0.6821(3)
O2B O 0.3705(2) 0.5188(2) 0.3179(3)
O2C O 0.6295(2) 0.4812(2) 0.3179(3)
O3A O 0.3960(3) 0.6133(3) 0.8176(2)
O3B O 0.3867(3) 0.3960(3) 0.1824(2)
O3C O 0.6133(3) 0.6040(3) 0.1824(2)
O4A O 0.3795(2) 0.6310(2) 0.6232(2)
O4B O 0.3690(2) 0.3795(2) 0.3768(2)
O4C O 0.6310(2) 0.6205(2) 0.3768(2)
O5A O 0.6309(2) 0.5095(2) 0.6822(3)
O5C O 0.5095(2) 0.3691(2) 0.3178(3)
O5B O 0.4905(2) 0.6309(2) 0.3178(3)
O6A O 0.2284(2) 0.5668(3) 0.6246(3)
O6B O 0.4332(3) 0.2284(2) 0.3754(3)
O6C O 0.5668(3) 0.7716(2) 0.3754(3)
O7A O 0.6862(2) 0.5591(2) 0.5393(3)
O7C O 0.5591(2) 0.3138(2) 0.4607(3)
O7B O 0.4409(2) 0.6862(2) 0.4607(3)
O8C O 0.6798(2) 0.4272(2) 0.4630(3)
O8B O 0.3202(2) 0.5728(2) 0.4630(3)
O8A O 0.5728(2) 0.6798(2) 0.5370(3)
O9B O 0.2240(2) 0.4553(3) 0.3764(3)
O9C O 0.7760(2) 0.5447(3) 0.3764(3)
O9A O 0.4553(3) 0.7760(2) 0.6236(3)
O10G O 0.17154(19) 0.18134(19) 0.81781(17)
O10A O 0.68134(19) 0.67154(19) 0.68219(17)
O10C O 0.67154(19) 0.31866(19) 0.31781(17)
O10B O 0.32846(19) 0.68134(19) 0.31781(17)
O10F O 0.82846(19) 0.81866(19) 0.81781(17)
Br1 Br 0.0000 0.0000 0.0000
loop_
_geom_bond_atom_site_label_1
_geom_bond_atom_site_label_2
_geom_bond_site_symmetry_1
_geom_bond_site_symmetry_2
Ni1 N1 1_555 1_555
V1 O2 1_555 1_555
V2 O4 1_555 1_555
V3 O2 1_555 1_555
V4 O1 1_555 1_555
C1 H1 1_555 1_555
C2 C1 1_555 1_555
H2 C2 1_555 1_555
C3 C2 1_555 1_555
C4 H3 1_555 1_555
C5 H4 1_555 1_555
C6 C5 1_555 1_555
H5 C6 1_555 1_555
C7 C3 1_555 1_555
C8 H6 1_555 1_555
C9 C7 1_555 1_555
H7 C9 1_555 1_555
C10 C3 1_555 1_555
H8 C10 1_555 1_555
N1 C1 1_555 1_555
N2 Ni1 1_555 1_555
O1 V4A 1_555 1_555
O2 V4 1_555 1_555
O3 V4 1_555 1_555
O4 V3 1_555 1_555
O5 V1 1_555 1_555
O6 V2 1_555 1_555
O7 V1 1_555 1_555
O8 V1 1_555 1_555
O9 V3 1_555 1_555
O10 Ni1 1_555 1_555
Ni1C N2C 1_555 1_555
Ni1B N1B 1_555 1_555
Ni1B_2 N1E 1_555 1_555
Ni1C_2 N2D 1_555 1_555
Ni1A N1A 1_555 1_555
Ni1C_3 O10C 1_555 1_555
Ni1B_3 O10B 1_555 1_555
V1A O2A 1_555 1_555
V1C O2C 1_555 1_555
V1B O2B 1_555 1_555
V2A O5 1_555 1_555
V2B O8 1_555 1_555
V2C O4C 1_555 1_555
V3B O7 1_555 1_555
V3C O2C 1_555 1_555
V3A O2A 1_555 1_555
V4A O5 1_555 1_555
V4B O1B 1_555 1_555
V4C O1B 1_555 1_555
C1B H1B 1_555 1_555
C1E H1E 1_555 1_555
C1F H1F 1_555 1_555
C2B C1B 1_555 1_555
C2E C1E 1_555 1_555
C2F C1F 1_555 1_555
H2B C2B 1_555 1_555
H2E C2E 1_555 1_555
H2F C2F 1_555 1_555
C3B C2B 1_555 1_555
C3E C2E 1_555 1_555
C3F C2F 1_555 1_555
C4B H3B 1_555 1_555
C4E H3E 1_555 1_555
C4F H3F 1_555 1_555
C5B N2 1_555 1_555
C5F H4F 1_555 1_555
C5E H4E 1_555 1_555
H4B C5B 1_555 1_555
C6B C5B 1_555 1_555
C6F C5F 1_555 1_555
C6E C5E 1_555 1_555
H5B C6B 1_555 1_555
H5F C6F 1_555 1_555
H5E C6E 1_555 1_555
C7B C3B 1_555 1_555
C7F C3F 1_555 1_555
C7E C3E 1_555 1_555
C8B N2 1_555 1_555
C8F H6F 1_555 1_555
C8E H6E 1_555 1_555
H6B C8B 1_555 1_555
C9B C7B 1_555 1_555
C9F C7F 1_555 1_555
C9E C7E 1_555 1_555
H7B C9B 1_555 1_555
H7F C9F 1_555 1_555
H7E C9E 1_555 1_555
C10B C3B 1_555 1_555
C10E C3E 1_555 1_555
C10F C3F 1_555 1_555
H8B C10B 1_555 1_555
H8E C10E 1_555 1_555
H8F C10F 1_555 1_555
N1G Ni1 1_555 1_555
N1B C1B 1_555 1_555
N1E C1E 1_555 1_555
N1F Ni1A 1_555 1_555
N2G Ni1 1_555 1_555
N2C C5 1_555 1_555
N2D C5F 1_555 1_555
N2A Ni1A 1_555 1_555
N2F Ni1A 1_555 1_555
O2A V4A 1_555 1_555
O2B V3B 1_555 1_555
O2C V4C 1_555 1_555
O3A V4A 1_555 1_555
O3B V4B 1_555 1_555
O3C V4C 1_555 1_555
O4A V2A 1_555 1_555
O4B V2B 1_555 1_555
O4C V3C 1_555 1_555
O5A V2 1_555 1_555
O5C V1C 1_555 1_555
O5B V1B 1_555 1_555
O6A V2A 1_555 1_555
O6B V2B 1_555 1_555
O6C V2C 1_555 1_555
O7A V2 1_555 1_555
O7C V3 1_555 1_555
O7B V1B 1_555 1_555
O8C V2 1_555 1_555
O8B V1B 1_555 1_555
O8A V1A 1_555 1_555
O9B V3B 1_555 1_555
O9C V3C 1_555 1_555
O9A V3A 1_555 1_555
O10G Ni1 1_555 1_555
O10A Ni1A 1_555 1_555
O10C V1C 1_555 1_555
O10B V1B 1_555 1_555
O10F Ni1A 1_555 1_555
V1 O10 1_555 1_555
V3 O8 1_555 1_555
V4 O4 1_555 1_555
V4 O5A 1_555 1_555
C4 C10 1_555 1_555
C4 N1 1_555 1_555
C6 C7 1_555 1_555
C8 C9 1_555 1_555
C8 N2C 1_555 1_555
O7 V2A 1_555 1_555
V1A O5A 1_555 1_555
V1A O7A 1_555 1_555
V1A O10A 1_555 1_555
V1C O7C 1_555 1_555
V1C O8C 1_555 1_555
V2A O8B 1_555 1_555
V2B O5C 1_555 1_555
V2B O7C 1_555 1_555
V2C O5B 1_555 1_555
V2C O7B 1_555 1_555
V2C O8A 1_555 1_555
V3B O4B 1_555 1_555
V3B O8B 1_555 1_555
V3C O7A 1_555 1_555
V3C O8C 1_555 1_555
V3A O4A 1_555 1_555
V3A O7B 1_555 1_555
V3A O8A 1_555 1_555
V4A O4A 1_555 1_555
V4B O2B 1_555 1_555
V4B O4B 1_555 1_555
V4B O5C 1_555 1_555
V4C O4C 1_555 1_555
V4C O5B 1_555 1_555
C1F N1F 1_555 1_555
C4B C10B 1_555 1_555
C4B N1B 1_555 1_555
C4E C10E 1_555 1_555
C4E N1E 1_555 1_555
C4F C10F 1_555 1_555
C4F N1F 1_555 1_555
C5E N2F 1_555 1_555
C6B C7B 1_555 1_555
C6F C7F 1_555 1_555
C6E C7E 1_555 1_555
C8B C9B 1_555 1_555
C8F C9F 1_555 1_555
C8F N2D 1_555 1_555
C8E C9E 1_555 1_555
C8E N2F 1_555 1_555

#END
