
#######################################################################
#
#                 Cambridge Crystallographic Data Centre
#                                CCDC 
#
#######################################################################
#
# If this CIF has been generated from an entry in the Cambridge 
# Structural Database, then it will include bibliographic, chemical, 
# crystal, experimental, refinement or atomic coordinate data resulting 
# from the CCDC's data processing and validation procedures.
#
#######################################################################

data_AVIVIK
_symmetry_cell_setting           tetragonal
_symmetry_space_group_name_H-M   'I 41/a m d'
_symmetry_Int_Tables_number      141
_space_group_name_Hall           '-I 4bd 2'
loop_
_symmetry_equiv_pos_site_id
_symmetry_equiv_pos_as_xyz
1 x,y,z
2 1/4-y,3/4+x,1/4+z
3 1/4+y,1/4-x,3/4+z
4 1/4+y,3/4+x,1/4-z
5 1/2+x,1/2+y,1/2+z
6 3/4-y,1/4+x,3/4+z
7 3/4+y,3/4-x,1/4+z
8 3/4+y,1/4+x,3/4-z
9 1/2-x,-y,1/2+z
10 1/2-x,y,1/2-z
11 x,-y,-z
12 1/4-y,1/4-x,3/4-z
13 -x,1/2-y,z
14 -x,1/2+y,-z
15 1/2+x,1/2-y,1/2-z
16 3/4-y,3/4-x,1/4-z
17 -x,-y,-z
18 3/4+y,1/4-x,3/4-z
19 3/4-y,3/4+x,1/4-z
20 3/4-y,1/4-x,3/4+z
21 1/2-x,1/2-y,1/2-z
22 1/4+y,3/4-x,1/4-z
23 1/4-y,1/4+x,3/4-z
24 1/4-y,3/4-x,1/4+z
25 1/2+x,y,1/2-z
26 1/2+x,-y,1/2+z
27 -x,y,z
28 3/4+y,3/4+x,1/4+z
29 x,1/2+y,-z
30 x,1/2-y,z
31 1/2-x,1/2+y,1/2+z
32 1/4+y,1/4+x,3/4+z
_cell_length_a                   22.975(5)
_cell_length_b                   22.975(5)
_cell_length_c                   34.298(7)
_cell_angle_alpha                90
_cell_angle_beta                 90
_cell_angle_gamma                90
_cell_volume                     18104.2
loop_
_atom_site_label
_atom_site_type_symbol
_atom_site_fract_x
_atom_site_fract_y
_atom_site_fract_z
_atom_site_U_iso_or_equiv
_atom_site_thermal_displace_type
Sb2 Sb 0.0000 0.2500 0.8750 0.0657 Uani
F4 F 0.0822(2) 0.2500 0.87487(17) 0.0767 Uani
F5 F 0.0000 0.2500 0.9291(2) 0.0747 Uani
F4G F 0.0000 0.3322(2) 0.87513(17) 0.0767 Uani
F4Z F -0.0822(2) 0.2500 0.87487(17) 0.0767 Uani
F4Q F 0.0000 0.1678(2) 0.87513(17) 0.0767 Uani
F5G F 0.0000 0.2500 0.8209(2) 0.0747 Uani
Sb3 Sb 0.2500 0.58339(19) 0.7500 0.1313 Uani
F6 F 0.1718(13) 0.5905(10) 0.7655(8) 0.1067 Uani
F7 F 0.2699(10) 0.5192(11) 0.7778(6) 0.2607 Uani
F8 F 0.2615(19) 0.637(2) 0.7819(12) 0.2400 Uani
F6I F 0.3282(13) 0.5905(10) 0.7345(8) 0.1067 Uani
F7I F 0.2301(10) 0.5192(11) 0.7222(6) 0.2607 Uani
F8I F 0.2385(19) 0.637(2) 0.7181(12) 0.2400 Uani
Ag1 Ag 0.33474(2) 0.08474(2) 0.6250 0.0535 Uani
N1 N 0.2326(2) 0.0877(3) 0.63622(17) 0.0643 Uani
C1 C 0.2143(3) 0.1207(4) 0.6653(2) 0.0810 Uani
H1 H 0.2425 0.1436 0.6785 0.0980 Uiso
C2 C 0.1585(3) 0.1245(4) 0.6779(2) 0.0820 Uani
H2 H 0.1486 0.1490 0.6992 0.0980 Uiso
C3 C 0.1158(3) 0.0917(3) 0.6589(2) 0.0543 Uani
C4 C 0.1347(3) 0.0559(3) 0.6289(2) 0.0637 Uani
H3 H 0.1077 0.0319 0.6155 0.0760 Uiso
C5 C 0.1927(3) 0.0551(3) 0.6187(2) 0.0700 Uani
H4 H 0.2048 0.0301 0.5982 0.0840 Uiso
C6 C 0.0548(3) 0.0937(3) 0.67088(18) 0.0507 Uani
S1 S 0.0000 0.08912(12) 0.63623(8) 0.0599 Uani
C7 C 0.0321(3) 0.0987(3) 0.70768(19) 0.0537 Uani
C8 C 0.0658(3) 0.0989(3) 0.74514(18) 0.0480 Uani
C9 C 0.0888(4) 0.0490(4) 0.7586(2) 0.0960 Uani
H5 H 0.0848 0.0140 0.7442 0.1150 Uiso
C10 C 0.1177(4) 0.0492(4) 0.7931(2) 0.0997 Uani
H6 H 0.1338 0.0134 0.8018 0.1190 Uiso
N2 N 0.1254(2) 0.0965(2) 0.81602(15) 0.0550 Uani
C11 C 0.1036(3) 0.1451(3) 0.80152(19) 0.0603 Uani
H7 H 0.1087 0.1801 0.8159 0.0720 Uiso
C12 C 0.0738(3) 0.1478(3) 0.7668(2) 0.0643 Uani
H8 H 0.0589 0.1840 0.7578 0.0770 Uiso
C6Z C -0.0548(3) 0.0937(3) 0.67088(18) 0.0507 Uani
C3Z C -0.1158(3) 0.0917(3) 0.6589(2) 0.0543 Uani
C2Z C -0.1585(3) 0.1245(4) 0.6779(2) 0.0820 Uani
C1Z C -0.2143(3) 0.1207(4) 0.6653(2) 0.0810 Uani
N1Z N -0.2326(2) 0.0877(3) 0.63622(17) 0.0643 Uani
C5Z C -0.1927(3) 0.0551(3) 0.6187(2) 0.0700 Uani
C4Z C -0.1347(3) 0.0559(3) 0.6289(2) 0.0637 Uani
H3Z H -0.1077 0.0319 0.6155 0.0760 Uiso
H4Z H -0.2048 0.0301 0.5982 0.0840 Uiso
H1Z H -0.2425 0.1436 0.6785 0.0980 Uiso
H2Z H -0.1486 0.1490 0.6992 0.0980 Uiso
C7Z C -0.0321(3) 0.0987(3) 0.70768(19) 0.0537 Uani
C8Z C -0.0658(3) 0.0989(3) 0.74514(18) 0.0480 Uani
C9Z C -0.0888(4) 0.0490(4) 0.7586(2) 0.0960 Uani
H5Z H -0.0848 0.0140 0.7442 0.1150 Uiso
C10Z C -0.1177(4) 0.0492(4) 0.7931(2) 0.0997 Uani
H6Z H -0.1338 0.0134 0.8018 0.1190 Uiso
N2Z N -0.1254(2) 0.0965(2) 0.81602(15) 0.0550 Uani
C11Z C -0.1036(3) 0.1451(3) 0.80152(19) 0.0603 Uani
H7Z H -0.1087 0.1801 0.8159 0.0720 Uiso
C12Z C -0.0738(3) 0.1478(3) 0.7668(2) 0.0643 Uani
H8Z H -0.0589 0.1840 0.7578 0.0770 Uiso
N1C N 0.3377(3) -0.0174(2) 0.61378(17) 0.0643 Uani
N2B N 0.3465(2) 0.1246(2) 0.56602(15) 0.0550 Uani
N2I N 0.3746(2) 0.0965(2) 0.68398(15) 0.0550 Uani
Ag1Z Ag -0.33474(2) 0.08474(2) 0.6250 0.0535 Uani
Ag1A Ag 0.16526(2) 0.08474(2) 0.8750 0.0535 Uani
Ag1X Ag -0.16526(2) 0.08474(2) 0.8750 0.0535 Uani
Sb1 Sb 0.2500 0.2500 0.7500 0.0622 Uani
F1 F 0.2500 0.3309(2) 0.7500 0.0920 Uani
F2 F 0.2155(4) 0.2500 0.79849(18) 0.1127 Uani
F3 F 0.3216(3) 0.2500 0.7750(2) 0.1127 Uani
F1CA F 0.2500 0.1691(2) 0.7500 0.0920 Uani
F2T F 0.2845(4) 0.2500 0.70151(18) 0.1127 Uani
F3T F 0.1784(3) 0.2500 0.7250(2) 0.1127 Uani
loop_
_atom_site_aniso_label
_atom_site_aniso_U_11
_atom_site_aniso_U_22
_atom_site_aniso_U_33
_atom_site_aniso_U_23
_atom_site_aniso_U_13
_atom_site_aniso_U_12
Sb2 0.0689(6) 0.0689(6) 0.0593(9) 0.000 0.000 0.000
F4 0.057(3) 0.099(4) 0.074(4) 0.000 0.004(3) 0.000
F5 0.092(6) 0.074(6) 0.058(4) 0.000 0.000 0.000
F4G 0.099 0.057 0.074 -0.004 0 0
F4Z 0.057 0.099 0.074 0 -0.004 0
F4Q 0.099 0.057 0.074 0.004 0 0
F5G 0.074 0.092 0.058 0 0 0
Sb3 0.179(5) 0.108(3) 0.107(3) 0.000 0.061(3) 0.000
F6 0.176(13) 0.057(14) 0.087(18) 0.024(12) 0.051(15) 0.005(11)
F7 0.26(2) 0.32(2) 0.202(19) 0.169(17) 0.18(2) 0.17(2)
F8 0.23(3) 0.30(2) 0.19(4) -0.14(2) 0.17(3) -0.13(3)
F6I 0.176 0.057 0.087 -0.024 0.051 -0.005
F7I 0.26 0.32 0.202 -0.169 0.18 -0.17
F8I 0.23 0.3 0.19 0.14 0.17 0.13
Ag1 0.0533(3) 0.0533(3) 0.0538(5) 0.0023(3) -0.0023(3) -0.0011(3)
N1 0.042(3) 0.086(5) 0.065(4) -0.022(3) 0.000(3) -0.006(3)
C1 0.056(4) 0.115(7) 0.072(5) -0.036(5) 0.013(4) -0.019(5)
C2 0.057(4) 0.097(6) 0.092(6) -0.046(5) 0.009(4) -0.010(4)
C3 0.043(3) 0.058(4) 0.062(4) -0.001(3) 0.007(3) -0.003(3)
C4 0.049(4) 0.077(5) 0.065(5) -0.020(4) 0.002(4) -0.013(4)
C5 0.051(4) 0.075(5) 0.084(5) -0.023(4) 0.008(4) 0.000(4)
C6 0.045(3) 0.056(4) 0.051(4) -0.007(3) 0.004(3) 0.001(3)
S1 0.0455(14) 0.0782(18) 0.0559(16) -0.0080(13) 0.000 0.000
C7 0.048(4) 0.058(4) 0.055(4) -0.004(3) 0.003(3) 0.002(3)
C8 0.047(4) 0.053(4) 0.044(3) -0.008(3) -0.004(3) -0.003(3)
C9 0.162(9) 0.052(4) 0.074(6) -0.016(4) -0.054(6) 0.010(5)
C10 0.156(9) 0.054(5) 0.089(6) -0.008(4) -0.052(6) 0.024(5)
N2 0.062(4) 0.051(3) 0.052(3) 0.001(3) -0.002(3) 0.007(3)
C11 0.059(5) 0.060(4) 0.062(4) -0.014(4) -0.014(3) 0.007(3)
C12 0.077(5) 0.052(4) 0.064(4) 0.003(3) -0.020(4) 0.010(4)
C6Z 0.045 0.056 0.051 -0.007 -0.004 -0.001
C3Z 0.043 0.058 0.062 -0.001 -0.007 0.003
C2Z 0.057 0.097 0.092 -0.046 -0.009 0.01
C1Z 0.056 0.115 0.072 -0.036 -0.013 0.019
N1Z 0.042 0.086 0.065 -0.022 0 0.006
C5Z 0.051 0.075 0.084 -0.023 -0.008 0
C4Z 0.049 0.077 0.065 -0.02 -0.002 0.013
C7Z 0.048 0.058 0.055 -0.004 -0.003 -0.002
C8Z 0.047 0.053 0.044 -0.008 0.004 0.003
C9Z 0.162 0.052 0.074 -0.016 0.054 -0.01
C10Z 0.156 0.054 0.089 -0.008 0.052 -0.024
N2Z 0.062 0.051 0.052 0.001 0.002 -0.007
C11Z 0.059 0.06 0.062 -0.014 0.014 -0.007
C12Z 0.077 0.052 0.064 0.003 0.02 -0.01
N1C 0.086 0.042 0.065 0 0.022 -0.006
N2B 0.051 0.062 0.052 0.002 0.001 -0.007
N2I 0.062 0.051 0.052 -0.001 -0.002 -0.007
Ag1Z 0.0533 0.0533 0.0538 0.0023 0.0023 0.0011
Ag1A 0.0533 0.0533 0.0538 -0.0023 -0.0023 0.0011
Ag1X 0.0533 0.0533 0.0538 -0.0023 0.0023 -0.0011
Sb1 0.0881(8) 0.0424(6) 0.0561(6) 0.000 -0.0124(5) 0.000
F1 0.167(7) 0.034(3) 0.075(4) 0.000 -0.021(4) 0.000
F2 0.188(7) 0.078(5) 0.072(4) 0.000 0.007(4) 0.000
F3 0.130(5) 0.068(4) 0.140(7) 0.000 -0.061(5) 0.000
F1CA 0.167 0.034 0.075 0 -0.021 0
F2T 0.188 0.078 0.072 0 0.007 0
F3T 0.13 0.068 0.14 0 -0.061 0
loop_
_geom_bond_atom_site_label_1
_geom_bond_atom_site_label_2
_geom_bond_site_symmetry_1
_geom_bond_site_symmetry_2
Sb1 F1 1_555 1_555
F2 Sb1 1_555 1_555
F3 Sb1 1_555 1_555
Sb2 F4 1_555 1_555
F5 Sb2 1_555 1_555
Sb3 F6 1_555 1_555
F7 Sb3 1_555 1_555
F8 Sb3 1_555 1_555
Ag1 N1 1_555 1_555
N1 C1 1_555 1_555
C1 H1 1_555 1_555
C2 C1 1_555 1_555
H2 C2 1_555 1_555
C3 C2 1_555 1_555
C4 C3 1_555 1_555
H3 C4 1_555 1_555
C5 N1 1_555 1_555
H4 C5 1_555 1_555
C6 C3 1_555 1_555
S1 C6 1_555 1_555
C7 C6 1_555 1_555
C8 C7 1_555 1_555
C9 C8 1_555 1_555
H5 C9 1_555 1_555
C10 C9 1_555 1_555
H6 C10 1_555 1_555
N2 C10 1_555 1_555
C11 N2 1_555 1_555
H7 C11 1_555 1_555
C12 C8 1_555 1_555
H8 C12 1_555 1_555
F1CA Sb1 1_555 1_555
F2T Sb1 1_555 1_555
F3T Sb1 1_555 1_555
F4G Sb2 1_555 1_555
F4Z Sb2 1_555 1_555
F4Q Sb2 1_555 1_555
F5G Sb2 1_555 1_555
F6I Sb3 1_555 1_555
F7I Sb3 1_555 1_555
F8I Sb3 1_555 1_555
C6Z S1 1_555 1_555
C3Z C6Z 1_555 1_555
C2Z C3Z 1_555 1_555
C1Z C2Z 1_555 1_555
N1Z C1Z 1_555 1_555
C5Z N1Z 1_555 1_555
C4Z C3Z 1_555 1_555
H3Z C4Z 1_555 1_555
H4Z C5Z 1_555 1_555
H1Z C1Z 1_555 1_555
H2Z C2Z 1_555 1_555
C7Z C7 1_555 1_555
C8Z C7Z 1_555 1_555
C9Z C8Z 1_555 1_555
H5Z C9Z 1_555 1_555
C10Z C9Z 1_555 1_555
H6Z C10Z 1_555 1_555
N2Z C10Z 1_555 1_555
C11Z N2Z 1_555 1_555
H7Z C11Z 1_555 1_555
C12Z C8Z 1_555 1_555
H8Z C12Z 1_555 1_555
N1C Ag1 1_555 1_555
N2B Ag1 1_555 1_555
N2I Ag1 1_555 1_555
Ag1Z N1Z 1_555 1_555
Ag1A N2 1_555 1_555
Ag1X N2Z 1_555 1_555
C4 C5 1_555 1_555
C11 C12 1_555 1_555
C6Z C7Z 1_555 1_555
C5Z C4Z 1_555 1_555
C11Z C12Z 1_555 1_555

#END
