
#######################################################################
#
#                 Cambridge Crystallographic Data Centre
#                                CCDC 
#
#######################################################################
#
# If this CIF has been generated from an entry in the Cambridge 
# Structural Database, then it will include bibliographic, chemical, 
# crystal, experimental, refinement or atomic coordinate data resulting 
# from the CCDC's data processing and validation procedures.
#
#######################################################################

data_BAMKIM
_symmetry_cell_setting           monoclinic
_symmetry_space_group_name_H-M   'P 21/c'
_symmetry_Int_Tables_number      14
_space_group_name_Hall           '-P 2ybc'
loop_
_symmetry_equiv_pos_site_id
_symmetry_equiv_pos_as_xyz
1 x,y,z
2 -x,1/2+y,1/2-z
3 -x,-y,-z
4 x,1/2-y,1/2+z
_cell_length_a                   9.6552(2)
_cell_length_b                   17.1958(5)
_cell_length_c                   20.8804(6)
_cell_angle_alpha                90
_cell_angle_beta                 94.231(2)
_cell_angle_gamma                90
_cell_volume                     3457.3
loop_
_atom_site_label
_atom_site_type_symbol
_atom_site_fract_x
_atom_site_fract_y
_atom_site_fract_z
Br1 Br 0.4043(3) 0.19710(13) 0.46669(11)
Cu1 Cu 0.29918(6) 0.49341(4) 0.52393(3)
Cu2 Cu 0.00104(6) 0.52158(4) 0.42825(3)
O1 O 0.3127(4) 0.4043(2) 0.5816(2)
O2 O 0.1072(4) 0.4027(3) 0.62553(19)
O3 O 0.0498(5) 0.0626(3) 0.8334(2)
O4 O -0.1190(4) 0.0676(3) 0.8986(2)
O5 O 0.1230(4) 0.4598(2) 0.48512(18)
H1 H 0.132(7) 0.4111(13) 0.484(3)
N1 N 0.2778(5) 0.5902(3) 0.4681(2)
N2 N 0.1499(5) 0.6031(3) 0.4365(2)
N3 N 0.2845(5) 0.7015(3) 0.4188(2)
N4 N 0.5799(5) 0.9327(3) 0.0566(2)
N5 N 0.4557(5) 0.9601(3) 0.0778(2)
N6 N 0.5776(5) 0.9125(3) 0.1592(2)
C1 C 0.3559(6) 0.6505(4) 0.4569(3)
H2 H 0.4475 0.6569 0.4731
C2 C 0.1566(6) 0.6708(4) 0.4081(3)
H3 H 0.0835 0.6943 0.3839
C3 C 0.3321(7) 0.7751(4) 0.3925(3)
H4 H 0.4060 0.7961 0.4215
H5 H 0.2559 0.8120 0.3903
C4 C 0.3847(6) 0.7665(4) 0.3263(3)
C5 C 0.3518(7) 0.7044(4) 0.2857(3)
H6 H 0.2947 0.6649 0.2990
C6 C 0.4029(8) 0.7006(5) 0.2257(4)
H7 H 0.3800 0.6588 0.1987
C7 C 0.4885(7) 0.7593(4) 0.2057(3)
H8 H 0.5235 0.7564 0.1655
C8 C 0.5219(6) 0.8219(4) 0.2454(3)
C9 C 0.4686(6) 0.8263(4) 0.3054(3)
H9 H 0.4889 0.8690 0.3317
C10 C 0.6187(7) 0.8857(5) 0.2264(3)
H10 H 0.6147 0.9291 0.2559
H11 H 0.7134 0.8665 0.2288
C11 C 0.6492(6) 0.9053(4) 0.1070(3)
H12 H 0.7373 0.8833 0.1069
C12 C 0.4577(6) 0.9469(4) 0.1393(3)
H13 H 0.3868 0.9595 0.1653
C13 C 0.2262(6) 0.3767(4) 0.6178(3)
C14 C 0.2767(8) 0.3068(5) 0.6566(4)
H14 H 0.3565 0.3223 0.6846
H15 H 0.3079 0.2678 0.6273
C15 C 0.1713(7) 0.2698(5) 0.6971(4)
C16 C 0.1549(8) 0.2976(5) 0.7588(5)
H16 H 0.2075 0.3396 0.7749
C17 C 0.0598(9) 0.2625(5) 0.7960(4)
H17 H 0.0517 0.2808 0.8374
C18 C -0.0208(7) 0.2033(5) 0.7748(4)
C19 C -0.0048(8) 0.1755(5) 0.7143(5)
H18 H -0.0590 0.1338 0.6989
C20 C 0.0913(8) 0.2084(5) 0.6751(4)
H19 H 0.1006 0.1885 0.6342
C21 C -0.1205(8) 0.1643(5) 0.8171(5)
H20 H -0.2033 0.1490 0.7911
H21 H -0.1478 0.2012 0.8490
C22 C -0.0574(7) 0.0929(4) 0.8511(3)
Cu1A Cu -0.29918(6) -0.00659(4) 0.97607(3)
Cu1A_2 Cu 0.70082(6) 0.99341(4) -0.02393(3)
Cu1C Cu 0.29918(6) 1.00659(4) 0.02393(3)
Cu2B Cu -0.00104(6) 0.47842(4) 0.57175(3)
Cu2C Cu 0.00104(6) -0.02158(4) 0.92825(3)
O2B O -0.1072(4) 0.5973(3) 0.37447(19)
O3C O 0.0498(5) 0.4374(3) 0.3334(2)
O4A O 0.1190(4) 0.5676(3) 0.6014(2)
O4C O -0.1190(4) 0.4324(3) 0.3986(2)
O5B O -0.1230(4) 0.5402(2) 0.51488(18)
N4A N 0.4201(5) 0.4327(3) 0.4434(2)
N5C N 0.4557(5) 0.5399(3) 0.5778(2)
loop_
_geom_bond_atom_site_label_1
_geom_bond_atom_site_label_2
_geom_bond_site_symmetry_1
_geom_bond_site_symmetry_2
Cu1 O1 1_555 1_555
Cu2 O5 1_555 1_555
O1 C13 1_555 1_555
O2 C13 1_555 1_555
O3 C22 1_555 1_555
O4 C22 1_555 1_555
O5 Cu1 1_555 1_555
H1 O5 1_555 1_555
N1 Cu1 1_555 1_555
N2 Cu2 1_555 1_555
N3 C1 1_555 1_555
N4 N5 1_555 1_555
N5 C12 1_555 1_555
N6 C10 1_555 1_555
C1 N1 1_555 1_555
H2 C1 1_555 1_555
C2 N2 1_555 1_555
H3 C2 1_555 1_555
C3 N3 1_555 1_555
H4 C3 1_555 1_555
H5 C3 1_555 1_555
C4 C3 1_555 1_555
C5 C4 1_555 1_555
H6 C5 1_555 1_555
C6 C5 1_555 1_555
H7 C6 1_555 1_555
C7 C6 1_555 1_555
H8 C7 1_555 1_555
C8 C7 1_555 1_555
C9 C4 1_555 1_555
H9 C9 1_555 1_555
C10 C8 1_555 1_555
H10 C10 1_555 1_555
H11 C10 1_555 1_555
C11 N4 1_555 1_555
H12 C11 1_555 1_555
C12 N6 1_555 1_555
H13 C12 1_555 1_555
C13 C14 1_555 1_555
C14 H14 1_555 1_555
H15 C14 1_555 1_555
C15 C14 1_555 1_555
C16 C15 1_555 1_555
H16 C16 1_555 1_555
C17 C16 1_555 1_555
H17 C17 1_555 1_555
C18 C17 1_555 1_555
C19 C18 1_555 1_555
H18 C19 1_555 1_555
C20 C15 1_555 1_555
H19 C20 1_555 1_555
C21 C18 1_555 1_555
H20 C21 1_555 1_555
H21 C21 1_555 1_555
C22 C21 1_555 1_555
Cu1A O4 1_555 1_555
Cu1A_2 N4 1_555 1_555
Cu1C N5 1_555 1_555
Cu2B O2 1_555 1_555
Cu2C O3 1_555 1_555
O2B Cu2 1_555 1_555
O3C Cu2 1_555 1_555
O4A Cu1 1_555 1_555
O4C Cu2 1_555 1_555
O5B Cu2 1_555 1_555
N4A Cu1 1_555 1_555
N5C Cu1 1_555 1_555
O4 Cu2C 1_555 1_555
O5 Cu2B 1_555 1_555
N1 N2 1_555 1_555
N3 C2 1_555 1_555
N6 C11 1_555 1_555
C8 C9 1_555 1_555
C19 C20 1_555 1_555
Cu2B O4A 1_555 1_555
Cu2B O5B 1_555 1_555

#END
