
#######################################################################
#
#                 Cambridge Crystallographic Data Centre
#                                CCDC 
#
#######################################################################
#
# If this CIF has been generated from an entry in the Cambridge 
# Structural Database, then it will include bibliographic, chemical, 
# crystal, experimental, refinement or atomic coordinate data resulting 
# from the CCDC's data processing and validation procedures.
#
#######################################################################

data_BELVAR
_symmetry_cell_setting           monoclinic
_symmetry_space_group_name_H-M   'C 2/c'
_symmetry_Int_Tables_number      15
_space_group_name_Hall           '-C 2yc'
loop_
_symmetry_equiv_pos_site_id
_symmetry_equiv_pos_as_xyz
1 x,y,z
2 -x,y,1/2-z
3 1/2+x,1/2+y,z
4 1/2-x,1/2+y,1/2-z
5 -x,-y,-z
6 x,-y,1/2+z
7 1/2-x,1/2-y,-z
8 1/2+x,1/2-y,1/2+z
_cell_length_a                   24.562(2)
_cell_length_b                   15.9487(11)
_cell_length_c                   32.901(3)
_cell_angle_alpha                90
_cell_angle_beta                 108.427(7)
_cell_angle_gamma                90
_cell_volume                     12227.6
loop_
_atom_site_label
_atom_site_type_symbol
_atom_site_fract_x
_atom_site_fract_y
_atom_site_fract_z
C1 C 0.23541(19) 1.5352(3) 0.10083(15)
C2 C 0.2551(2) 1.6157(4) 0.09723(18)
H1 H 0.2906 1.6228 0.0918
C3 C 0.2239(2) 1.6856(4) 0.10137(17)
H2 H 0.2382 1.7402 0.0993
C4 C 0.17090(19) 1.6755(3) 0.10869(16)
C5 C 0.1401(2) 1.7533(3) 0.11576(16)
C6 C 0.1504(2) 1.5951(3) 0.11144(18)
H3 H 0.1144 1.5881 0.1161
C7 C 0.1818(2) 1.5247(3) 0.10746(18)
H4 H 0.1673 1.4700 0.1092
C8 C 0.24189(18) 1.3548(3) 0.08358(14)
C9 C 0.2264(2) 1.3320(3) 0.04047(15)
H5 H 0.2352 1.3680 0.0204
C10 C 0.19814(19) 1.2568(3) 0.02683(15)
H6 H 0.1870 1.2424 -0.0027
C11 C 0.18594(17) 1.2021(3) 0.05580(14)
C12 C 0.16308(18) 1.1139(3) 0.04170(15)
C13 C 0.1994(2) 1.2263(3) 0.09882(16)
H7 H 0.1896 1.1906 0.1185
C14 C 0.2268(2) 1.3015(3) 0.11283(16)
H8 H 0.2354 1.3175 0.1420
C15 C 0.32188(19) 1.4307(3) 0.15844(15)
C16 C 0.3724(2) 1.3840(4) 0.16938(16)
H9 H 0.3866 1.3647 0.1473
C17 C 0.4029(2) 1.3649(4) 0.21215(17)
H10 H 0.4370 1.3323 0.2189
C18 C 0.3830(2) 1.3938(4) 0.24447(15)
C19 C 0.4147(2) 1.3733(4) 0.29051(17)
C20 C 0.3322(2) 1.4399(5) 0.23393(17)
H11 H 0.3177 1.4583 0.2560
C21 C 0.3024(2) 1.4592(4) 0.19158(17)
H12 H 0.2685 1.4922 0.1851
C22 C 0.16264(19) 0.6654(3) -0.08773(15)
C23 C 0.1863(2) 0.6688(4) -0.04291(17)
H13 H 0.2116 0.6257 -0.0282
C24 C 0.1732(2) 0.7339(4) -0.01992(17)
H14 H 0.1892 0.7347 0.0104
C25 C 0.13671(19) 0.7988(3) -0.04075(15)
C26 C 0.1255(2) 0.8734(3) -0.01546(16)
C27 C 0.1132(2) 0.7960(3) -0.08487(16)
H15 H 0.0885 0.8400 -0.0994
C28 C 0.1252(2) 0.7291(3) -0.10850(16)
H16 H 0.1078 0.7273 -0.1387
C29 C 0.1521(2) 0.4855(3) -0.10519(16)
C30 C 0.1853(2) 0.4124(3) -0.09783(18)
H17 H 0.2243 0.4154 -0.0968
C31 C 0.16240(19) 0.3359(3) -0.09200(17)
H18 H 0.1859 0.2872 -0.0864
C32 C 0.10462(19) 0.3301(3) -0.09432(15)
C33 C 0.0798(2) 0.2456(3) -0.08979(16)
C34 C 0.0716(2) 0.4025(3) -0.10093(19)
H19 H 0.0326 0.3990 -0.1020
C35 C 0.0945(2) 0.4805(3) -0.10599(17)
H20 H 0.0716 0.5296 -0.1099
C36 C 0.1597(2) 0.5983(3) -0.17203(16)
C37 C 0.1988(3) 0.6197(5) -0.1938(2)
H21 H 0.2378 0.6301 -0.1779
C38 C 0.1815(3) 0.6255(5) -0.2369(2)
H22 H 0.2087 0.6404 -0.2507
C39 C 0.1253(3) 0.6104(4) -0.26153(19)
C40 C 0.1082(3) 0.6138(5) -0.3102(2)
C41 C 0.0854(3) 0.5923(5) -0.24127(19)
H23 H 0.0465 0.5828 -0.2577
C42 C 0.1021(2) 0.5880(5) -0.19703(18)
H24 H 0.0740 0.5779 -0.1833
C43 C -0.0238(2) 1.0736(3) -0.03997(16)
H25 H -0.0357 1.0547 -0.0167
Mn1 Mn 0.10294(3) 1.05830(5) -0.05534(2)
Mn2 Mn 0.03786(3) 1.84904(5) 0.12555(2)
Mn3 Mn 0.15815(3) 1.93618(5) 0.08309(2)
O1 O 0.16561(14) 1.8224(2) 0.11937(11)
O2 O 0.08967(15) 1.7430(2) 0.11870(14)
O3 O 0.16332(14) 1.0905(2) 0.00535(10)
O4 O 0.14792(14) 1.0693(2) 0.06818(10)
O5 O 0.45717(17) 1.3246(3) 0.30063(12)
O6 O 0.39751(15) 1.4076(3) 0.31977(11)
O7 O 0.32362(13) 1.4703(2) 0.07728(10)
O8 O 0.14630(15) 0.8688(2) 0.02477(11)
O9 O 0.09344(13) 0.9313(2) -0.03655(11)
O10 O 0.11334(13) 0.1863(2) -0.07412(11)
O11 O 0.02540(14) 0.2412(2) -0.10374(14)
O12 O 0.1403(2) 0.6339(4) -0.32924(16)
O13 O 0.0533(3) 0.5922(5) -0.32972(15)
H26 H 0.0462 0.5952 -0.3564
O14 O 0.24989(12) 0.5699(2) -0.09873(11)
O15 O 0.02796(13) 1.0914(2) -0.03172(11)
O16 O -0.06280(12) 1.0783(2) -0.07678(10)
O17 O 0.16809(18) 1.9971(3) 0.14697(12)
P1 P 0.28433(5) 1.44904(8) 0.10246(4)
P2 P 0.18601(5) 0.58053(8) -0.11474(4)
Cl1 Cl 0.02790(6) 1.02185(10) -0.12825(4)
H27 H 0.149(3) 1.961(4) 0.1605(19)
H28 H 0.198(2) 2.038(4) 0.1678(18)
Mn1F Mn 0.39706(3) 1.44170(5) 0.05534(2)
Mn1_2 Mn 0.10294(3) 0.05830(5) -0.05534(2)
Mn2C Mn 0.46214(3) 1.34904(5) 0.37445(2)
Mn2D Mn -0.03786(3) 0.15096(5) -0.12555(2)
Mn2D_2 Mn -0.03786(3) 1.15096(5) -0.12555(2)
Mn3_2 Mn 0.15815(3) 0.93618(5) 0.08309(2)
Mn3F Mn 0.34185(3) 0.56382(5) -0.08309(2)
Mn3D Mn -0.15815(3) 1.06382(5) -0.08309(2)
O4_2 O 0.14792(14) 2.0693(2) 0.06818(10)
O5C O 0.04283(17) 1.8246(3) 0.19937(12)
O6C O 0.10249(15) 1.9076(3) 0.18023(11)
O7F O 0.17638(13) 1.0297(2) -0.07728(10)
O8_2 O 0.14630(15) 1.8688(2) 0.02477(11)
O10_2 O 0.11334(13) 1.1863(2) -0.07412(11)
O11D O -0.02540(14) 1.7588(2) 0.10374(14)
O14F O 0.25011(12) 1.9301(2) 0.09873(11)
O16D O 0.06280(12) 1.9217(2) 0.07678(10)
Cl1D Cl -0.02790(6) 1.97815(10) 0.12825(4)
C44 C 0.0402(3) 0.1625(5) 0.0783(3)
H29 H 0.0308 0.1291 0.0520
H30 H 0.0680 0.2060 0.0775
H31 H 0.0052 0.1887 0.0806
C45 C 0.0802(4) 0.1507(6) 0.1570(3)
H32 H 0.0961 0.1087 0.1793
H33 H 0.0461 0.1762 0.1612
H34 H 0.1090 0.1942 0.1586
N1 N 0.0641(3) 0.1096(4) 0.1142(2)
H35 H 0.0964 0.0846 0.1111
H36 H 0.0381 0.0677 0.1136
loop_
_geom_bond_atom_site_label_1
_geom_bond_atom_site_label_2
_geom_bond_site_symmetry_1
_geom_bond_site_symmetry_2
C1 C2 1_555 1_555
C2 H1 1_555 1_555
C3 C2 1_555 1_555
H2 C3 1_555 1_555
C4 C3 1_555 1_555
C5 C4 1_555 1_555
C6 C4 1_555 1_555
H3 C6 1_555 1_555
C7 C1 1_555 1_555
H4 C7 1_555 1_555
C8 C9 1_555 1_555
C9 H5 1_555 1_555
C10 C9 1_555 1_555
H6 C10 1_555 1_555
C11 C10 1_555 1_555
C12 C11 1_555 1_555
C13 C11 1_555 1_555
H7 C13 1_555 1_555
C14 C8 1_555 1_555
H8 C14 1_555 1_555
C15 C16 1_555 1_555
C16 H9 1_555 1_555
C17 C16 1_555 1_555
H10 C17 1_555 1_555
C18 C17 1_555 1_555
C19 C18 1_555 1_555
C20 C18 1_555 1_555
H11 C20 1_555 1_555
C21 C15 1_555 1_555
H12 C21 1_555 1_555
C22 C23 1_555 1_555
C23 H13 1_555 1_555
C24 C23 1_555 1_555
H14 C24 1_555 1_555
C25 C24 1_555 1_555
C26 C25 1_555 1_555
C27 C25 1_555 1_555
H15 C27 1_555 1_555
C28 C22 1_555 1_555
H16 C28 1_555 1_555
C29 C30 1_555 1_555
C30 H17 1_555 1_555
C31 C30 1_555 1_555
H18 C31 1_555 1_555
C32 C31 1_555 1_555
C33 C32 1_555 1_555
C34 C32 1_555 1_555
H19 C34 1_555 1_555
C35 C29 1_555 1_555
H20 C35 1_555 1_555
C36 C37 1_555 1_555
C37 H21 1_555 1_555
C38 C37 1_555 1_555
H22 C38 1_555 1_555
C39 C38 1_555 1_555
C40 C39 1_555 1_555
C41 C39 1_555 1_555
H23 C41 1_555 1_555
C42 C36 1_555 1_555
H24 C42 1_555 1_555
C43 H25 1_555 1_555
Mn1 O3 1_555 1_555
Mn2 O2 1_555 1_555
Mn3 O1 1_555 1_555
O1 C5 1_555 1_555
O2 C5 1_555 1_555
O3 C12 1_555 1_555
O4 C12 1_555 1_555
O5 C19 1_555 1_555
O6 C19 1_555 1_555
O7 P1 1_555 1_555
O8 C26 1_555 1_555
O9 C26 1_555 1_555
O10 C33 1_555 1_555
O11 C33 1_555 1_555
O12 C40 1_555 1_555
O13 C40 1_555 1_555
H26 O13 1_555 1_555
O14 P2 1_555 1_555
O15 C43 1_555 1_555
O16 C43 1_555 1_555
O17 Mn3 1_555 1_555
P1 C1 1_555 1_555
P2 C22 1_555 1_555
Cl1 Mn1 1_555 1_555
H27 O17 1_555 1_555
H28 O17 1_555 1_555
C44 H29 1_555 1_555
H30 C44 1_555 1_555
H31 C44 1_555 1_555
C45 H32 1_555 1_555
H33 C45 1_555 1_555
H34 C45 1_555 1_555
N1 C44 1_555 1_555
H35 N1 1_555 1_555
H36 N1 1_555 1_555
Mn1F O7 1_555 1_555
Mn1_2 O10 1_555 1_555
Mn2C O5 1_555 1_555
Mn2D O11 1_555 1_555
Mn2D_2 O16 1_555 1_555
Mn3_2 O4 1_555 1_555
Mn3F O14 1_555 1_555
Mn3D O16 1_555 1_555
O4_2 Mn3 1_555 1_555
O5C Mn2 1_555 1_555
O6C Mn2 1_555 1_555
O7F Mn1 1_555 1_555
O8_2 Mn3 1_555 1_555
O10_2 Mn1 1_555 1_555
O11D Mn2 1_555 1_555
O14F Mn3 1_555 1_555
O16D Mn2 1_555 1_555
Cl1D Mn2 1_555 1_555
C6 C7 1_555 1_555
C8 P1 1_555 1_555
C13 C14 1_555 1_555
C15 P1 1_555 1_555
C20 C21 1_555 1_555
C27 C28 1_555 1_555
C29 P2 1_555 1_555
C34 C35 1_555 1_555
C36 P2 1_555 1_555
C41 C42 1_555 1_555
Mn1 O9 1_555 1_555
Mn1 O15 1_555 1_555
Mn3 O16D 1_555 1_555
O6 Mn2C 1_555 1_555
O8 Mn3_2 1_555 1_555
Cl1 Mn2D_2 1_555 1_555
C45 N1 1_555 1_555

#END
