
#######################################################################
#
#                 Cambridge Crystallographic Data Centre
#                                CCDC 
#
#######################################################################
#
# If this CIF has been generated from an entry in the Cambridge 
# Structural Database, then it will include bibliographic, chemical, 
# crystal, experimental, refinement or atomic coordinate data resulting 
# from the CCDC's data processing and validation procedures.
#
#######################################################################

data_BOPHIZ
_symmetry_cell_setting           triclinic
_symmetry_space_group_name_H-M   'P -1'
_symmetry_Int_Tables_number      2
_space_group_name_Hall           '-P 1'
loop_
_symmetry_equiv_pos_site_id
_symmetry_equiv_pos_as_xyz
1 x,y,z
2 -x,-y,-z
_cell_length_a                   11.2195(4)
_cell_length_b                   15.8170(7)
_cell_length_c                   18.0989(6)
_cell_angle_alpha                102.099(3)
_cell_angle_beta                 96.385(3)
_cell_angle_gamma                98.947(3)
_cell_volume                     3067.68
loop_
_atom_site_label
_atom_site_type_symbol
_atom_site_fract_x
_atom_site_fract_y
_atom_site_fract_z
N2 N 0.5954(16) 0.6980(12) 0.1038(9)
H28 H 0.5727 0.7408 0.0827
H29 H 0.6686 0.6902 0.0906
C48 C 0.612(2) 0.7313(16) 0.1915(12)
H30 H 0.5823 0.7854 0.2040
H31 H 0.6972 0.7410 0.2119
H32 H 0.5674 0.6881 0.2132
C49 C 0.5075(18) 0.6163(15) 0.0693(12)
H33 H 0.5095 0.6008 0.0153
H34 H 0.4270 0.6249 0.0782
H35 H 0.5287 0.5699 0.0920
Cd1 Cd 0.73090(6) 0.25003(4) 0.63584(4)
Cd2 Cd 0.64148(6) 0.67881(4) 0.88470(4)
O1 O 1.5299(7) 0.2104(6) 0.5908(5)
O2 O 1.5441(7) 0.3506(6) 0.6376(5)
O3 O 0.9334(7) 0.1889(5) 0.6387(5)
O4 O 0.7735(7) 0.1349(5) 0.5502(5)
O5 O 0.6770(8) 0.1549(5) 0.7296(4)
O6 O 0.7603(6) 0.2937(4) 0.7647(4)
O7 O 0.4080(7) 0.2153(4) 1.0178(4)
O8 O 0.4365(8) 0.1925(5) 1.1326(4)
O9 O 0.8183(9) 0.3348(6) 0.5679(5)
O10 O 0.8114(9) 0.4498(7) 0.6510(5)
O11 O 0.7290(6) 0.6368(5) 0.7736(4)
O12 O 0.8446(7) 0.7364(5) 0.8691(4)
O13 O 0.4677(8) 0.5307(7) 0.7473(5)
O14 O 0.4638(7) 0.5926(6) 0.8671(5)
O15 O 0.1964(8) 0.3364(6) 0.9551(5)
O16 O 0.2700(7) 0.4221(5) 1.0681(5)
C1 C 1.3493(9) 0.2682(7) 0.5752(5)
C2 C 1.2709(8) 0.1873(6) 0.5638(6)
H1 H 1.3024 0.1391 0.5739
C3 C 1.1462(8) 0.1769(6) 0.5375(5)
C4 C 1.1020(9) 0.2486(7) 0.5224(6)
H2 H 1.0191 0.2434 0.5060
C5 C 1.1794(9) 0.3290(7) 0.5313(6)
H3 H 1.1481 0.3762 0.5189
C6 C 1.3021(9) 0.3396(7) 0.5583(6)
H4 H 1.3528 0.3939 0.5652
C7 C 1.0681(8) 0.0873(7) 0.5218(6)
C8 C 0.9482(9) 0.0696(7) 0.5364(6)
C9 C 0.8851(8) -0.0162(6) 0.5152(6)
H5 H 0.8060 -0.0271 0.5264
C10 C 1.4839(9) 0.2772(8) 0.6036(6)
C11 C 0.8834(10) 0.1370(7) 0.5801(7)
C12 C 0.7175(9) 0.2223(6) 0.7805(5)
C13 C 0.7126(9) 0.2217(6) 0.8632(5)
C14 C 0.7805(10) 0.2908(6) 0.9212(5)
H6 H 0.8319 0.3366 0.9094
C15 C 0.7698(10) 0.2898(7) 0.9958(6)
H7 H 0.8129 0.3364 1.0345
C16 C 0.6965(9) 0.2213(6) 1.0148(5)
H8 H 0.6909 0.2222 1.0658
C17 C 0.6311(8) 0.1512(6) 0.9580(5)
C18 C 0.6413(9) 0.1522(6) 0.8828(5)
H9 H 0.5992 0.1051 0.8442
C19 C 0.5594(8) 0.0747(6) 0.9786(5)
C20 C 0.4771(9) 0.0832(6) 1.0301(5)
C21 C 0.4191(9) 0.0090(6) 1.0516(5)
H10 H 0.3649 0.0158 1.0869
C22 C 0.4389(10) 0.1704(6) 1.0628(6)
C23 C 0.8459(10) 0.4135(7) 0.5938(6)
C24 C 0.9250(8) 0.4640(6) 0.5479(5)
C25 C 1.0070(8) 0.5440(6) 0.5781(5)
C26 C 1.0793(8) 0.5765(6) 0.5283(5)
H11 H 1.1343 0.6291 0.5478
C27 C 1.0240(8) 0.5954(7) 0.6581(5)
C28 C 1.1396(9) 0.6225(7) 0.7011(6)
H12 H 1.2067 0.6066 0.6795
C29 C 1.1573(10) 0.6723(8) 0.7752(6)
H13 H 1.2357 0.6904 0.8025
C30 C 1.0595(10) 0.6951(8) 0.8087(6)
H14 H 1.0716 0.7283 0.8587
C31 C 0.9426(9) 0.6688(7) 0.7680(5)
C32 C 0.9236(9) 0.6210(7) 0.6915(5)
H15 H 0.8458 0.6065 0.6633
C33 C 0.8319(9) 0.6834(7) 0.8059(5)
C34 C 0.4201(10) 0.5419(8) 0.8055(7)
C35 C 0.2932(9) 0.4907(7) 0.8031(6)
C36 C 0.2308(10) 0.4360(8) 0.7357(7)
H16 H 0.2697 0.4260 0.6928
C37 C 0.1118(11) 0.3963(9) 0.7315(7)
H17 H 0.0700 0.3607 0.6855
C38 C 0.0537(10) 0.4086(8) 0.7950(6)
H18 H -0.0279 0.3835 0.7914
C39 C 0.1179(9) 0.4590(7) 0.8646(6)
C40 C 0.2363(8) 0.4999(6) 0.8677(5)
H19 H 0.2790 0.5343 0.9140
C41 C -0.0411(8) 0.5225(6) 0.9336(5)
H20 H -0.0693 0.5373 0.8886
C42 C 0.0567(8) 0.4767(6) 0.9341(5)
C43 C 0.0968(8) 0.4539(6) 1.0036(6)
C44 C 0.1957(9) 0.3998(7) 1.0078(7)
O17 O 0.6860(9) 0.4496(6) 0.7941(8)
H21 H 0.7388 0.4952 0.8456
H22 H 0.7429 0.3993 0.7917
O18 O 0.5936(16) 0.5459(13) 0.5862(10)
N1 N 0.515(3) 0.6777(19) 0.5994(18)
C45 C 0.508(3) 0.587(2) 0.590(2)
C46 C 0.430(3) 0.604(2) 0.547(2)
H23 H 0.3470 0.5932 0.5576
H24 H 0.4388 0.5931 0.4936
C47 C 0.620(4) 0.746(3) 0.636(3)
H25 H 0.6086 0.7713 0.6876
H26 H 0.6287 0.7912 0.6082
H27 H 0.6928 0.7209 0.6380
Cd3 Cd 0.63529(10) 0.49321(8) 0.69717(6)
O1A O 0.4701(7) -0.2104(6) 0.4092(5)
O2A O 0.4559(7) -0.3506(6) 0.3624(5)
O3A O 1.0666(7) -0.1889(5) 0.3613(5)
O4A O 1.2265(7) -0.1349(5) 0.4498(5)
C1A C 0.6507(9) -0.2682(7) 0.4248(5)
C2A C 0.7291(8) -0.1873(6) 0.4362(6)
H1A H 0.6976 -0.1391 0.4261
C3A C 0.8538(8) -0.1769(6) 0.4625(5)
C4A C 0.8980(9) -0.2486(7) 0.4776(6)
H2A H 0.9809 -0.2434 0.4940
C5A C 0.8206(9) -0.3290(7) 0.4687(6)
H3A H 0.8519 -0.3762 0.4811
C6A C 0.6979(9) -0.3396(7) 0.4417(6)
H4A H 0.6472 -0.3939 0.4348
C7A C 0.9319(8) -0.0873(7) 0.4782(6)
C8A C 1.0518(9) -0.0696(7) 0.4636(6)
C9A C 1.1149(8) 0.0162(6) 0.4848(6)
H5A H 1.1940 0.0271 0.4736
C10A C 0.5161(9) -0.2772(8) 0.3964(6)
C11A C 1.1166(10) -0.1370(7) 0.4199(7)
O5A O 0.3230(8) -0.1549(5) 1.2704(4)
O6A O 0.2397(6) -0.2937(4) 1.2353(4)
O7A O 0.5920(7) -0.2153(4) 0.9822(4)
O8A O 0.5635(8) -0.1925(5) 0.8674(4)
C12A C 0.2825(9) -0.2223(6) 1.2195(5)
C13A C 0.2874(9) -0.2217(6) 1.1368(5)
C14A C 0.2195(10) -0.2908(6) 1.0788(5)
H6A H 0.1681 -0.3366 1.0906
C15A C 0.2302(10) -0.2898(7) 1.0042(6)
H7A H 0.1871 -0.3364 0.9655
C16A C 0.3035(9) -0.2213(6) 0.9852(5)
H8A H 0.3091 -0.2222 0.9342
C17A C 0.3689(8) -0.1512(6) 1.0420(5)
C18A C 0.3587(9) -0.1522(6) 1.1172(5)
H9A H 0.4008 -0.1051 1.1558
C19A C 0.4406(8) -0.0747(6) 1.0214(5)
C20A C 0.5229(9) -0.0832(6) 0.9699(5)
C21A C 0.5809(9) -0.0090(6) 0.9484(5)
H10A H 0.6351 -0.0158 0.9131
C22A C 0.5611(10) -0.1704(6) 0.9372(6)
O9A O 1.1817(9) 0.6652(6) 0.4321(5)
O10A O 1.1886(9) 0.5502(7) 0.3490(5)
O11A O 1.2710(6) 0.3632(5) 0.2264(4)
O12A O 1.1554(7) 0.2636(5) 0.1309(4)
C23A C 1.1541(10) 0.5865(7) 0.4062(6)
C24A C 1.0750(8) 0.5360(6) 0.4521(5)
C25A C 0.9930(8) 0.4560(6) 0.4219(5)
C26A C 0.9207(8) 0.4235(6) 0.4717(5)
H11A H 0.8657 0.3709 0.4522
C27A C 0.9760(8) 0.4046(7) 0.3419(5)
C28A C 0.8604(9) 0.3775(7) 0.2989(6)
H12A H 0.7933 0.3934 0.3205
C29A C 0.8427(10) 0.3277(8) 0.2248(6)
H13A H 0.7643 0.3096 0.1975
C30A C 0.9405(10) 0.3049(8) 0.1913(6)
H14A H 0.9284 0.2717 0.1413
C31A C 1.0574(9) 0.3312(7) 0.2320(5)
C32A C 1.0764(9) 0.3790(7) 0.3085(5)
H15A H 1.1542 0.3935 0.3367
C33A C 1.1681(9) 0.3166(7) 0.1941(5)
O13A O -0.4677(8) 0.4693(7) 1.2527(5)
O14A O -0.4638(7) 0.4074(6) 1.1329(5)
O15A O -0.1964(8) 0.6636(6) 1.0449(5)
O16A O -0.2700(7) 0.5779(5) 0.9319(5)
C34A C -0.4201(10) 0.4581(8) 1.1945(7)
C35A C -0.2932(9) 0.5093(7) 1.1969(6)
C36A C -0.2308(10) 0.5640(8) 1.2643(7)
H16A H -0.2697 0.5740 1.3072
C37A C -0.1118(11) 0.6037(9) 1.2685(7)
H17A H -0.0700 0.6393 1.3145
C38A C -0.0537(10) 0.5914(8) 1.2050(6)
H18A H 0.0279 0.6165 1.2086
C39A C -0.1179(9) 0.5410(7) 1.1354(6)
C40A C -0.2363(8) 0.5001(6) 1.1323(5)
H19A H -0.2790 0.4657 1.0860
C41A C 0.0411(8) 0.4775(6) 1.0664(5)
H20A H 0.0693 0.4627 1.1114
C42A C -0.0567(8) 0.5233(6) 1.0659(5)
C43A C -0.0968(8) 0.5461(6) 0.9964(6)
C44A C -0.1957(9) 0.6002(7) 0.9922(7)
Cd2A Cd -0.64148(6) 0.32119(4) 1.11530(4)
O17A O -0.6860(9) 0.5504(6) 1.2059(8)
H21A H -0.7388 0.5048 1.1544
H22A H -0.7429 0.6007 1.2083
O18A O -0.5936(16) 0.4541(13) 1.4138(10)
N1A N -0.515(3) 0.3223(19) 1.4006(18)
C45A C -0.508(3) 0.413(2) 1.410(2)
C46A C -0.430(3) 0.396(2) 1.453(2)
H23A H -0.3470 0.4068 1.4424
H24A H -0.4388 0.4069 1.5064
C47A C -0.620(4) 0.254(3) 1.364(3)
H25A H -0.6086 0.2287 1.3124
H26A H -0.6287 0.2088 1.3918
H27A H -0.6928 0.2791 1.3620
Cd3A Cd -0.63529(10) 0.50679(8) 1.30283(6)
Cd1_2 Cd 1.73090(6) 0.25003(4) 0.63584(4)
Cd1A Cd 0.26910(6) -0.25003(4) 0.36416(4)
Cd1A_2 Cd 0.26910(6) -0.25003(4) 1.36416(4)
Cd1A_3 Cd 1.26910(6) -0.25003(4) 0.36416(4)
Cd1A_4 Cd 1.26910(6) 0.74997(4) 0.36416(4)
Cd2_2 Cd -0.35852(6) 0.67881(4) 0.88470(4)
Cd2_3 Cd 0.64148(6) -0.32119(4) 0.88470(4)
Cd2A_2 Cd 0.35852(6) 0.32119(4) 1.11530(4)
Cd2A_3 Cd 1.35852(6) 0.32119(4) 0.11530(4)
O1_2 O 0.5299(7) 0.2104(6) 0.5908(5)
O2_2 O 0.5441(7) 0.3506(6) 0.6376(5)
O2A_2 O -0.5441(7) 0.6494(6) 1.3624(5)
O3_2 O 1.9334(7) 0.1889(5) 0.6387(5)
O4_2 O 1.7735(7) 0.1349(5) 0.5502(5)
O5_2 O 1.6770(8) 0.1549(5) 0.7296(4)
O6_2 O 1.7603(6) 0.2937(4) 0.7647(4)
O7_2 O -0.5920(7) 0.2153(4) 1.0178(4)
O7A_2 O 0.5920(7) 0.7847(4) 0.9822(4)
O8_2 O -0.5635(8) 0.1925(5) 1.1326(4)
O8A_2 O 0.5635(8) 0.8075(5) 0.8674(4)
O9_2 O 1.8183(9) 0.3348(6) 0.5679(5)
O10A_2 O -0.8114(9) 0.5502(7) 1.3490(5)
O11A_2 O -0.7290(6) 0.3632(5) 1.2264(4)
O12A_2 O -0.8446(7) 0.2636(5) 1.1309(4)
O16_2 O -0.7300(7) 0.4221(5) 1.0681(5)
O16A_2 O 0.7300(7) 0.5779(5) 0.9319(5)
Cd3_2 Cd 1.63529(10) 0.49321(8) 0.69717(6)
Cd3A_2 Cd 0.36471(10) -0.49321(8) 0.30283(6)
Cd3A_3 Cd 1.36471(10) 0.50679(8) 0.30283(6)
loop_
_geom_bond_atom_site_label_1
_geom_bond_atom_site_label_2
_geom_bond_site_symmetry_1
_geom_bond_site_symmetry_2
Cd1 O3 1_555 1_555
Cd2 O11 1_555 1_555
O1 C10 1_555 1_555
O2 C10 1_555 1_555
O3 C11 1_555 1_555
O4 Cd1 1_555 1_555
O5 Cd1 1_555 1_555
O6 Cd1 1_555 1_555
O7 C22 1_555 1_555
O8 C22 1_555 1_555
O9 Cd1 1_555 1_555
O10 C23 1_555 1_555
O11 C33 1_555 1_555
O12 Cd2 1_555 1_555
O13 C34 1_555 1_555
O14 Cd2 1_555 1_555
O15 C44 1_555 1_555
O16 C44 1_555 1_555
C1 C2 1_555 1_555
C2 H1 1_555 1_555
C3 C2 1_555 1_555
C4 C3 1_555 1_555
H2 C4 1_555 1_555
C5 C4 1_555 1_555
H3 C5 1_555 1_555
C6 C1 1_555 1_555
H4 C6 1_555 1_555
C7 C3 1_555 1_555
C8 C7 1_555 1_555
C9 C8 1_555 1_555
H5 C9 1_555 1_555
C10 C1 1_555 1_555
C11 O4 1_555 1_555
C12 O5 1_555 1_555
C13 C12 1_555 1_555
C14 C13 1_555 1_555
H6 C14 1_555 1_555
C15 C14 1_555 1_555
H7 C15 1_555 1_555
C16 C15 1_555 1_555
H8 C16 1_555 1_555
C17 C16 1_555 1_555
C18 C13 1_555 1_555
H9 C18 1_555 1_555
C19 C17 1_555 1_555
C20 C19 1_555 1_555
C21 C20 1_555 1_555
H10 C21 1_555 1_555
C22 C20 1_555 1_555
C23 O9 1_555 1_555
C24 C23 1_555 1_555
C25 C24 1_555 1_555
C26 C25 1_555 1_555
H11 C26 1_555 1_555
C27 C25 1_555 1_555
C28 C27 1_555 1_555
H12 C28 1_555 1_555
C29 C28 1_555 1_555
H13 C29 1_555 1_555
C30 C29 1_555 1_555
H14 C30 1_555 1_555
C31 C30 1_555 1_555
C32 C27 1_555 1_555
H15 C32 1_555 1_555
C33 O12 1_555 1_555
C34 O14 1_555 1_555
C35 C34 1_555 1_555
C36 C35 1_555 1_555
H16 C36 1_555 1_555
C37 C36 1_555 1_555
H17 C37 1_555 1_555
C38 C37 1_555 1_555
H18 C38 1_555 1_555
C39 C38 1_555 1_555
C40 C35 1_555 1_555
H19 C40 1_555 1_555
C41 H20 1_555 1_555
C42 C39 1_555 1_555
C43 C42 1_555 1_555
C44 C43 1_555 1_555
O17 H21 1_555 1_555
H22 O17 1_555 1_555
O18 C45 1_555 1_555
N1 C45 1_555 1_555
C46 N1 1_555 1_555
H23 C46 1_555 1_555
H24 C46 1_555 1_555
C47 N1 1_555 1_555
H25 C47 1_555 1_555
H26 C47 1_555 1_555
H27 C47 1_555 1_555
Cd3 O10 1_555 1_555
N2 H28 1_555 1_555
H29 N2 1_555 1_555
C48 N2 1_555 1_555
H30 C48 1_555 1_555
H31 C48 1_555 1_555
H32 C48 1_555 1_555
C49 N2 1_555 1_555
H33 C49 1_555 1_555
H34 C49 1_555 1_555
H35 C49 1_555 1_555
O1A C10A 1_555 1_555
O2A C10A 1_555 1_555
O3A C11A 1_555 1_555
O4A C11A 1_555 1_555
C1A C2A 1_555 1_555
C2A H1A 1_555 1_555
C3A C2A 1_555 1_555
C4A C3A 1_555 1_555
H2A C4A 1_555 1_555
C5A C4A 1_555 1_555
H3A C5A 1_555 1_555
C6A C1A 1_555 1_555
H4A C6A 1_555 1_555
C7A C9 1_555 1_555
C8A C7A 1_555 1_555
C9A C7 1_555 1_555
H5A C9A 1_555 1_555
C10A C1A 1_555 1_555
C11A C8A 1_555 1_555
O5A C12A 1_555 1_555
O6A C12A 1_555 1_555
O7A C22A 1_555 1_555
O8A C22A 1_555 1_555
C12A C13A 1_555 1_555
C13A C14A 1_555 1_555
C14A H6A 1_555 1_555
C15A C14A 1_555 1_555
H7A C15A 1_555 1_555
C16A C15A 1_555 1_555
H8A C16A 1_555 1_555
C17A C16A 1_555 1_555
C18A C13A 1_555 1_555
H9A C18A 1_555 1_555
C19A C21 1_555 1_555
C20A C19A 1_555 1_555
C21A C19 1_555 1_555
H10A C21A 1_555 1_555
C22A C20A 1_555 1_555
O9A C23A 1_555 1_555
O10A C23A 1_555 1_555
O11A C33A 1_555 1_555
O12A C33A 1_555 1_555
C23A C24A 1_555 1_555
C24A C26 1_555 1_555
C25A C24A 1_555 1_555
C26A C24 1_555 1_555
H11A C26A 1_555 1_555
C27A C25A 1_555 1_555
C28A C27A 1_555 1_555
H12A C28A 1_555 1_555
C29A C28A 1_555 1_555
H13A C29A 1_555 1_555
C30A C29A 1_555 1_555
H14A C30A 1_555 1_555
C31A C30A 1_555 1_555
C32A C27A 1_555 1_555
H15A C32A 1_555 1_555
C33A C31A 1_555 1_555
O13A C34A 1_555 1_555
O14A C34A 1_555 1_555
O15A C44A 1_555 1_555
O16A C44A 1_555 1_555
C34A C35A 1_555 1_555
C35A C36A 1_555 1_555
C36A H16A 1_555 1_555
C37A C36A 1_555 1_555
H17A C37A 1_555 1_555
C38A C37A 1_555 1_555
H18A C38A 1_555 1_555
C39A C38A 1_555 1_555
C40A C35A 1_555 1_555
H19A C40A 1_555 1_555
C41A C43 1_555 1_555
H20A C41A 1_555 1_555
C42A C39A 1_555 1_555
C43A C41 1_555 1_555
C44A C43A 1_555 1_555
Cd2A O14A 1_555 1_555
O17A H21A 1_555 1_555
H22A O17A 1_555 1_555
O18A C45A 1_555 1_555
N1A C45A 1_555 1_555
C46A N1A 1_555 1_555
H23A C46A 1_555 1_555
H24A C46A 1_555 1_555
C47A N1A 1_555 1_555
H25A C47A 1_555 1_555
H26A C47A 1_555 1_555
H27A C47A 1_555 1_555
Cd3A O13A 1_555 1_555
Cd1_2 O1 1_555 1_555
Cd1A O1A 1_555 1_555
Cd1A_2 O5A 1_555 1_555
Cd1A_3 O3A 1_555 1_555
Cd1A_4 O9A 1_555 1_555
Cd2_2 O16A 1_555 1_555
Cd2_3 O7A 1_555 1_555
Cd2A_2 O7 1_555 1_555
Cd2A_3 O11A 1_555 1_555
O1_2 Cd1 1_555 1_555
O2_2 Cd3 1_555 1_555
O2A_2 Cd3A 1_555 1_555
O3_2 Cd1_2 1_555 1_555
O4_2 Cd1_2 1_555 1_555
O5_2 Cd1_2 1_555 1_555
O6_2 Cd1_2 1_555 1_555
O7_2 Cd2A 1_555 1_555
O7A_2 Cd2 1_555 1_555
O8_2 Cd2A 1_555 1_555
O8A_2 Cd2 1_555 1_555
O9_2 Cd1_2 1_555 1_555
O10A_2 Cd3A 1_555 1_555
O11A_2 Cd2A 1_555 1_555
O12A_2 Cd2A 1_555 1_555
O16_2 Cd2A 1_555 1_555
O16A_2 Cd2 1_555 1_555
Cd3_2 O2 1_555 1_555
Cd3A_2 O2A 1_555 1_555
Cd3A_3 O10A 1_555 1_555
O6 C12 1_555 1_555
O8 Cd2A_2 1_555 1_555
O11 Cd3 1_555 1_555
O13 Cd3 1_555 1_555
O16 Cd2A_2 1_555 1_555
C5 C6 1_555 1_555
C8 C11 1_555 1_555
C17 C18 1_555 1_555
C31 C32 1_555 1_555
C31 C33 1_555 1_555
C39 C40 1_555 1_555
C41 C42 1_555 1_555
O17 Cd3 1_555 1_555
O18 Cd3 1_555 1_555
O4A Cd1A_3 1_555 1_555
C3A C7A 1_555 1_555
C5A C6A 1_555 1_555
C8A C9A 1_555 1_555
O6A Cd1A_2 1_555 1_555
O8A Cd2_3 1_555 1_555
C17A C18A 1_555 1_555
C17A C19A 1_555 1_555
C20A C21A 1_555 1_555
O11A Cd3A_3 1_555 1_555
O12A Cd2A_3 1_555 1_555
C25A C26A 1_555 1_555
C31A C32A 1_555 1_555
C39A C40A 1_555 1_555
C41A C42A 1_555 1_555
C42A C43A 1_555 1_555
O17A Cd3A 1_555 1_555
O18A Cd3A 1_555 1_555
Cd3A O11A_2 1_555 1_555

#END
