
#######################################################################
#
#                 Cambridge Crystallographic Data Centre
#                                CCDC 
#
#######################################################################
#
# If this CIF has been generated from an entry in the Cambridge 
# Structural Database, then it will include bibliographic, chemical, 
# crystal, experimental, refinement or atomic coordinate data resulting 
# from the CCDC's data processing and validation procedures.
#
#######################################################################

data_ABEMIF
_symmetry_cell_setting           cubic
_symmetry_space_group_name_H-M   'P m -3 m'
_symmetry_Int_Tables_number      221
_space_group_name_Hall           '-P 4 2 3'
loop_
_symmetry_equiv_pos_site_id
_symmetry_equiv_pos_as_xyz
1 x,y,z
2 -x,-y,z
3 -x,y,-z
4 x,-y,-z
5 z,x,y
6 z,-x,-y
7 -z,-x,y
8 -z,x,-y
9 y,z,x
10 -y,z,-x
11 y,-z,-x
12 -y,-z,x
13 y,x,-z
14 -y,-x,-z
15 y,-x,z
16 -y,x,z
17 x,z,-y
18 -x,z,y
19 -x,-z,-y
20 x,-z,y
21 z,y,-x
22 z,-y,x
23 -z,y,x
24 -z,-y,-x
25 -x,-y,-z
26 x,y,-z
27 x,-y,z
28 -x,y,z
29 -z,-x,-y
30 -z,x,y
31 z,x,-y
32 z,-x,y
33 -y,-z,-x
34 y,-z,x
35 -y,z,x
36 y,z,-x
37 -y,-x,z
38 y,x,z
39 -y,x,-z
40 y,-x,-z
41 -x,-z,y
42 x,-z,-y
43 x,z,y
44 -x,z,-y
45 -z,-y,x
46 -z,y,-x
47 z,-y,-x
48 z,y,x
_cell_length_a                   15.3840(11)
_cell_length_b                   15.3840(11)
_cell_length_c                   15.3840(11)
_cell_angle_alpha                90
_cell_angle_beta                 90
_cell_angle_gamma                90
_cell_volume                     3640.89
loop_
_atom_site_label
_atom_site_type_symbol
_atom_site_fract_x
_atom_site_fract_y
_atom_site_fract_z
Cu1 Cu 0.33601(6) 0.5000 0.0000
Cl1 Cl 0.5000 0.5000 0.0000
O1 O 0.3134(3) 0.4145(3) -0.0899(3)
C1 C 0.3483(3) 0.3483(3) -0.1175(4)
C2 C 0.3069(3) 0.3069(3) -0.1964(4)
C3 C 0.3438(4) 0.2334(3) -0.2334(3)
H1 H 0.3933 0.2089 -0.2089
O1G O 0.0899(3) 0.3134(3) -0.4145(3)
C1G C 0.1175(4) 0.3483(3) -0.3483(3)
C2G C 0.1964(4) 0.3069(3) -0.3069(3)
C3G C 0.2334(3) 0.3438(4) -0.2334(3)
H1G H 0.2089 0.3933 -0.2089
O1J O 0.4145(3) 0.0899(3) -0.3134(3)
C1J C 0.3483(3) 0.1175(4) -0.3483(3)
C2J C 0.3069(3) 0.1964(4) -0.3069(3)
C3J C 0.2334(3) 0.2334(3) -0.3438(4)
H1J H 0.2089 0.2089 -0.3933
O1KA O 0.4145(3) 0.3134(3) -0.0899(3)
O1OA O 0.3134(3) 0.0899(3) -0.4145(3)
O1SA O 0.0899(3) 0.4145(3) -0.3134(3)
Cu1A Cu 0.66399(6) 0.5000 0.0000
O1A O 0.6866(3) 0.5855(3) -0.0899(3)
C1A C 0.6517(3) 0.6517(3) -0.1175(4)
C2A C 0.6931(3) 0.6931(3) -0.1964(4)
C3A C 0.6562(4) 0.7666(3) -0.2334(3)
H1A H 0.6067 0.7911 -0.2089
O1E O 0.9101(3) 0.6866(3) -0.4145(3)
C1E C 0.8825(4) 0.6517(3) -0.3483(3)
C2E C 0.8036(4) 0.6931(3) -0.3069(3)
C3E C 0.7666(3) 0.6562(4) -0.2334(3)
H1E H 0.7911 0.6067 -0.2089
O1I O 0.5855(3) 0.9101(3) -0.3134(3)
C1I C 0.6517(3) 0.8825(4) -0.3483(3)
C2I C 0.6931(3) 0.8036(4) -0.3069(3)
C3I C 0.7666(3) 0.7666(3) -0.3438(4)
H1I H 0.7911 0.7911 -0.3933
O1JA O 0.5855(3) 0.6866(3) -0.0899(3)
O1QA O 0.6866(3) 0.9101(3) -0.4145(3)
O1TA O 0.9101(3) 0.5855(3) -0.3134(3)
Cu1E Cu 1.0000 0.66399(6) -0.5000
Cl1D Cl 1.0000 0.5000 -0.5000
Cu1D Cu 0.0000 0.33601(6) -0.5000
Cl1D_2 Cl 0.0000 0.5000 -0.5000
Cu1I Cu 0.5000 1.0000 -0.33601(6)
Cu1I_2 Cu 0.5000 0.0000 -0.33601(6)
Cu1H Cu 0.5000 0.0000 -0.66399(6)
O1K O 0.5855(3) 0.0899(3) -0.6866(3)
C1K C 0.6517(3) 0.1175(4) -0.6517(3)
C2K C 0.6931(3) 0.1964(4) -0.6931(3)
C3K C 0.7666(3) 0.2334(3) -0.6562(4)
H1K H 0.7911 0.2089 -0.6067
O1B O 0.6866(3) 0.4145(3) -0.9101(3)
C1B C 0.6517(3) 0.3483(3) -0.8825(4)
C2B C 0.6931(3) 0.3069(3) -0.8036(4)
C3B C 0.6562(4) 0.2334(3) -0.7666(3)
H1B H 0.6067 0.2089 -0.7911
O1D O 0.9101(3) 0.3134(3) -0.5855(3)
C1D C 0.8825(4) 0.3483(3) -0.6517(3)
C2D C 0.8036(4) 0.3069(3) -0.6931(3)
C3D C 0.7666(3) 0.3438(4) -0.7666(3)
H1D H 0.7911 0.3933 -0.7911
O1NA O 0.6866(3) 0.0899(3) -0.5855(3)
O1UA O 0.9101(3) 0.4145(3) -0.6866(3)
O1LA O 0.5855(3) 0.3134(3) -0.9101(3)
Cu1L Cu 0.5000 0.33601(6) -1.0000
O1L O 0.4145(3) 0.3134(3) -0.9101(3)
C1L C 0.3483(3) 0.3483(3) -0.8825(4)
C2L C 0.3069(3) 0.3069(3) -0.8036(4)
C3L C 0.2334(3) 0.3438(4) -0.7666(3)
H1L H 0.2089 0.3933 -0.7911
O1S O 0.3134(3) 0.0899(3) -0.5855(3)
C1S C 0.3483(3) 0.1175(4) -0.6517(3)
C2S C 0.3069(3) 0.1964(4) -0.6931(3)
C3S C 0.3438(4) 0.2334(3) -0.7666(3)
H1S H 0.3933 0.2089 -0.7911
O1V O 0.0899(3) 0.4145(3) -0.6866(3)
C1V C 0.1175(4) 0.3483(3) -0.6517(3)
C2V C 0.1964(4) 0.3069(3) -0.6931(3)
C3V C 0.2334(3) 0.2334(3) -0.6562(4)
H1V H 0.2089 0.2089 -0.6067
O1Y O 0.3134(3) 0.4145(3) -0.9101(3)
O1CA O 0.0899(3) 0.3134(3) -0.5855(3)
O1GA O 0.4145(3) 0.0899(3) -0.6866(3)
Cu1L_2 Cu 0.5000 0.33601(6) 0.0000
O1L_2 O 0.4145(3) 0.3134(3) 0.0899(3)
C1L_2 C 0.3483(3) 0.3483(3) 0.1175(4)
C2L_2 C 0.3069(3) 0.3069(3) 0.1964(4)
C3L_2 C 0.2334(3) 0.3438(4) 0.2334(3)
H1L_2 H 0.2089 0.3933 0.2089
O1S_2 O 0.3134(3) 0.0899(3) 0.4145(3)
C1S_2 C 0.3483(3) 0.1175(4) 0.3483(3)
C2S_2 C 0.3069(3) 0.1964(4) 0.3069(3)
C3S_2 C 0.3438(4) 0.2334(3) 0.2334(3)
H1S_2 H 0.3933 0.2089 0.2089
O1V_2 O 0.0899(3) 0.4145(3) 0.3134(3)
C1V_2 C 0.1175(4) 0.3483(3) 0.3483(3)
C2V_2 C 0.1964(4) 0.3069(3) 0.3069(3)
C3V_2 C 0.2334(3) 0.2334(3) 0.3438(4)
H1V_2 H 0.2089 0.2089 0.3933
O1Y_2 O 0.3134(3) 0.4145(3) 0.0899(3)
O1CA_2 O 0.0899(3) 0.3134(3) 0.4145(3)
O1GA_2 O 0.4145(3) 0.0899(3) 0.3134(3)
Cu1M Cu 0.5000 0.66399(6) 0.0000
Cu1M_2 Cu 0.5000 -0.33601(6) 0.0000
O1N O 0.4145(3) -0.3134(3) -0.0899(3)
C1N C 0.3483(3) -0.3483(3) -0.1175(4)
C2N C 0.3069(3) -0.3069(3) -0.1964(4)
C3N C 0.2334(3) -0.3438(4) -0.2334(3)
H1N H 0.2089 -0.3933 -0.2089
O1P O 0.3134(3) -0.0899(3) -0.4145(3)
C1P C 0.3483(3) -0.1175(4) -0.3483(3)
C2P C 0.3069(3) -0.1964(4) -0.3069(3)
C3P C 0.3438(4) -0.2334(3) -0.2334(3)
H1P H 0.3933 -0.2089 -0.2089
O1W O 0.0899(3) -0.4145(3) -0.3134(3)
C1W C 0.1175(4) -0.3483(3) -0.3483(3)
C2W C 0.1964(4) -0.3069(3) -0.3069(3)
C3W C 0.2334(3) -0.2334(3) -0.3438(4)
H1W H 0.2089 -0.2089 -0.3933
O1Z O 0.3134(3) -0.4145(3) -0.0899(3)
O1BA O 0.0899(3) -0.3134(3) -0.4145(3)
O1IA O 0.4145(3) -0.0899(3) -0.3134(3)
O1N_2 O 0.4145(3) 0.6866(3) -0.0899(3)
C1N_2 C 0.3483(3) 0.6517(3) -0.1175(4)
C2N_2 C 0.3069(3) 0.6931(3) -0.1964(4)
C3N_2 C 0.2334(3) 0.6562(4) -0.2334(3)
H1N_2 H 0.2089 0.6067 -0.2089
O1P_2 O 0.3134(3) 0.9101(3) -0.4145(3)
C1P_2 C 0.3483(3) 0.8825(4) -0.3483(3)
C2P_2 C 0.3069(3) 0.8036(4) -0.3069(3)
C3P_2 C 0.3438(4) 0.7666(3) -0.2334(3)
H1P_2 H 0.3933 0.7911 -0.2089
O1W_2 O 0.0899(3) 0.5855(3) -0.3134(3)
C1W_2 C 0.1175(4) 0.6517(3) -0.3483(3)
C2W_2 C 0.1964(4) 0.6931(3) -0.3069(3)
C3W_2 C 0.2334(3) 0.7666(3) -0.3438(4)
H1W_2 H 0.2089 0.7911 -0.3933
O1Z_2 O 0.3134(3) 0.5855(3) -0.0899(3)
O1BA_2 O 0.0899(3) 0.6866(3) -0.4145(3)
O1IA_2 O 0.4145(3) 0.9101(3) -0.3134(3)
Cu1L_3 Cu -0.5000 0.33601(6) 0.0000
O1O O -0.4145(3) 0.3134(3) -0.0899(3)
C1O C -0.3483(3) 0.3483(3) -0.1175(4)
C2O C -0.3069(3) 0.3069(3) -0.1964(4)
C3O C -0.2334(3) 0.3438(4) -0.2334(3)
H1O H -0.2089 0.3933 -0.2089
O1R O -0.3134(3) 0.0899(3) -0.4145(3)
C1R C -0.3483(3) 0.1175(4) -0.3483(3)
C2R C -0.3069(3) 0.1964(4) -0.3069(3)
C3R C -0.3438(4) 0.2334(3) -0.2334(3)
H1R H -0.3933 0.2089 -0.2089
O1T O -0.0899(3) 0.4145(3) -0.3134(3)
C1T C -0.1175(4) 0.3483(3) -0.3483(3)
C2T C -0.1964(4) 0.3069(3) -0.3069(3)
C3T C -0.2334(3) 0.2334(3) -0.3438(4)
H1T H -0.2089 0.2089 -0.3933
O1AA O -0.3134(3) 0.4145(3) -0.0899(3)
O1DA O -0.0899(3) 0.3134(3) -0.4145(3)
O1FA O -0.4145(3) 0.0899(3) -0.3134(3)
Cu1_2 Cu 0.33601(6) -0.5000 0.0000
Cu1_3 Cu 0.33601(6) 0.5000 -1.0000
Cu1A_2 Cu -0.33601(6) 0.5000 0.0000
Cu1A_3 Cu 0.66399(6) 0.5000 -1.0000
Cu1D_2 Cu 0.0000 0.33601(6) 0.5000
Cu1D_3 Cu 1.0000 0.33601(6) -0.5000
Cu1E_2 Cu 0.0000 -0.33601(6) -0.5000
Cu1E_3 Cu 0.0000 0.66399(6) -0.5000
Cu1H_2 Cu 0.5000 0.0000 0.33601(6)
Cu1I_3 Cu -0.5000 0.0000 -0.33601(6)
Cu1P Cu 0.33601(6) 0.0000 -0.5000
Cu1P_2 Cu 0.33601(6) 0.0000 0.5000
Cu1P_3 Cu 0.33601(6) 1.0000 -0.5000
Cu1Q Cu -0.33601(6) 0.0000 -0.5000
Cu1Q_2 Cu 0.66399(6) 0.0000 -0.5000
Cu1Q_3 Cu 0.66399(6) 1.0000 -0.5000
Cu1T Cu 0.0000 -0.5000 -0.33601(6)
Cu1T_2 Cu 0.0000 0.5000 -0.33601(6)
Cu1T_3 Cu 1.0000 0.5000 -0.33601(6)
Cu1U Cu 0.0000 0.5000 -0.66399(6)
Cu1U_2 Cu 0.0000 0.5000 0.33601(6)
Cu1U_3 Cu 1.0000 0.5000 -0.66399(6)
Cl1_2 Cl -0.5000 0.5000 0.0000
Cl1_3 Cl 0.5000 -0.5000 0.0000
Cl1_4 Cl 0.5000 0.5000 -1.0000
Cl1H Cl 0.5000 0.0000 -0.5000
Cl1H_2 Cl 0.5000 1.0000 -0.5000
O1B_2 O 0.6866(3) 0.4145(3) 0.0899(3)
O1C O 0.3134(3) 0.5855(3) 0.0899(3)
O1D_2 O -0.0899(3) 0.3134(3) -0.5855(3)
O1F O 1.0899(3) 0.6866(3) -0.5855(3)
O1H O 0.4145(3) -0.0899(3) -0.6866(3)
O1I_2 O 0.5855(3) -0.0899(3) -0.3134(3)
O1J_2 O 0.4145(3) 1.0899(3) -0.3134(3)
O1L_3 O -0.5855(3) 0.3134(3) 0.0899(3)
O1M O 0.5855(3) -0.3134(3) 0.0899(3)
O1M_2 O 0.5855(3) 0.6866(3) 0.0899(3)
O1O_2 O 0.5855(3) 0.3134(3) -1.0899(3)
O1O_3 O 0.5855(3) 0.3134(3) -0.0899(3)
O1X O 0.6866(3) 0.5855(3) 0.0899(3)
O1AA_2 O 0.6866(3) 0.4145(3) -0.0899(3)
O1BA_3 O 1.0899(3) 0.6866(3) -0.4145(3)
O1EA O 0.9101(3) 0.6866(3) -0.5855(3)
O1FA_2 O 0.5855(3) 0.0899(3) -0.3134(3)
O1FA_3 O 0.5855(3) 1.0899(3) -0.3134(3)
O1HA O 0.5855(3) -0.0899(3) -0.6866(3)
O1JA_2 O 0.5855(3) -0.3134(3) -0.0899(3)
O1KA_2 O -0.5855(3) 0.3134(3) -0.0899(3)
O1KA_3 O 0.4145(3) 0.3134(3) -1.0899(3)
O1LA_2 O -0.4145(3) 0.3134(3) 0.0899(3)
O1LA_3 O 0.5855(3) 0.3134(3) 0.0899(3)
O1MA O 0.4145(3) -0.3134(3) 0.0899(3)
O1MA_2 O 0.4145(3) 0.6866(3) 0.0899(3)
loop_
_geom_bond_atom_site_label_1
_geom_bond_atom_site_label_2
_geom_bond_site_symmetry_1
_geom_bond_site_symmetry_2
Cu1 Cl1 1_555 1_555
Cl1 Cu1A 1_555 1_555
O1 Cu1 1_555 1_555
C1 O1 1_555 1_555
C2 C1 1_555 1_555
C3 C2 1_555 1_555
H1 C3 1_555 1_555
O1G C1G 1_555 1_555
C1G C2G 1_555 1_555
C2G C3G 1_555 1_555
C3G C2 1_555 1_555
H1G C3G 1_555 1_555
O1J C1J 1_555 1_555
C1J C2J 1_555 1_555
C2J C3 1_555 1_555
C3J C2G 1_555 1_555
H1J C3J 1_555 1_555
O1KA C1 1_555 1_555
O1OA C1J 1_555 1_555
O1SA C1G 1_555 1_555
Cu1A O1A 1_555 1_555
O1A C1A 1_555 1_555
C1A C2A 1_555 1_555
C2A C3A 1_555 1_555
C3A H1A 1_555 1_555
O1E C1E 1_555 1_555
C1E C2E 1_555 1_555
C2E C3E 1_555 1_555
C3E C2A 1_555 1_555
H1E C3E 1_555 1_555
O1I C1I 1_555 1_555
C1I C2I 1_555 1_555
C2I C3A 1_555 1_555
C3I C2E 1_555 1_555
H1I C3I 1_555 1_555
O1JA C1A 1_555 1_555
O1QA C1I 1_555 1_555
O1TA C1E 1_555 1_555
Cu1E O1E 1_555 1_555
Cl1D Cu1E 1_555 1_555
Cu1D O1G 1_555 1_555
Cl1D_2 Cu1D 1_555 1_555
Cu1I O1I 1_555 1_555
Cu1I_2 O1J 1_555 1_555
Cu1H O1K 1_555 1_555
O1K C1K 1_555 1_555
C1K C2K 1_555 1_555
C2K C3K 1_555 1_555
C3K H1K 1_555 1_555
O1B C1B 1_555 1_555
C1B C2B 1_555 1_555
C2B C3B 1_555 1_555
C3B C2K 1_555 1_555
H1B C3B 1_555 1_555
O1D C1D 1_555 1_555
C1D C2D 1_555 1_555
C2D C3K 1_555 1_555
C3D C2B 1_555 1_555
H1D C3D 1_555 1_555
O1NA C1K 1_555 1_555
O1UA C1D 1_555 1_555
O1LA C1B 1_555 1_555
Cu1L O1LA 1_555 1_555
O1L Cu1L 1_555 1_555
C1L O1L 1_555 1_555
C2L C1L 1_555 1_555
C3L C2L 1_555 1_555
H1L C3L 1_555 1_555
O1S C1S 1_555 1_555
C1S C2S 1_555 1_555
C2S C3S 1_555 1_555
C3S C2L 1_555 1_555
H1S C3S 1_555 1_555
O1V C1V 1_555 1_555
C1V C2V 1_555 1_555
C2V C3L 1_555 1_555
C3V C2S 1_555 1_555
H1V C3V 1_555 1_555
O1Y C1L 1_555 1_555
O1CA Cu1D 1_555 1_555
O1GA Cu1H 1_555 1_555
Cu1L_2 Cl1 1_555 1_555
O1L_2 Cu1L_2 1_555 1_555
C1L_2 O1L_2 1_555 1_555
C2L_2 C1L_2 1_555 1_555
C3L_2 C2L_2 1_555 1_555
H1L_2 C3L_2 1_555 1_555
O1S_2 C1S_2 1_555 1_555
C1S_2 C2S_2 1_555 1_555
C2S_2 C3S_2 1_555 1_555
C3S_2 C2L_2 1_555 1_555
H1S_2 C3S_2 1_555 1_555
O1V_2 C1V_2 1_555 1_555
C1V_2 C2V_2 1_555 1_555
C2V_2 C3L_2 1_555 1_555
C3V_2 C2S_2 1_555 1_555
H1V_2 C3V_2 1_555 1_555
O1Y_2 Cu1 1_555 1_555
O1CA_2 C1V_2 1_555 1_555
O1GA_2 C1S_2 1_555 1_555
Cu1M Cl1 1_555 1_555
Cu1M_2 O1N 1_555 1_555
O1N C1N 1_555 1_555
C1N C2N 1_555 1_555
C2N C3N 1_555 1_555
C3N H1N 1_555 1_555
O1P C1P 1_555 1_555
C1P C2P 1_555 1_555
C2P C3P 1_555 1_555
C3P C2N 1_555 1_555
H1P C3P 1_555 1_555
O1W C1W 1_555 1_555
C1W C2W 1_555 1_555
C2W C3N 1_555 1_555
C3W C2P 1_555 1_555
H1W C3W 1_555 1_555
O1Z C1N 1_555 1_555
O1BA C1W 1_555 1_555
O1IA Cu1I_2 1_555 1_555
O1N_2 Cu1M 1_555 1_555
C1N_2 O1N_2 1_555 1_555
C2N_2 C1N_2 1_555 1_555
C3N_2 C2N_2 1_555 1_555
H1N_2 C3N_2 1_555 1_555
O1P_2 C1P_2 1_555 1_555
C1P_2 C2P_2 1_555 1_555
C2P_2 C3P_2 1_555 1_555
C3P_2 C2N_2 1_555 1_555
H1P_2 C3P_2 1_555 1_555
O1W_2 C1W_2 1_555 1_555
C1W_2 C2W_2 1_555 1_555
C2W_2 C3N_2 1_555 1_555
C3W_2 C2P_2 1_555 1_555
H1W_2 C3W_2 1_555 1_555
O1Z_2 Cu1 1_555 1_555
O1BA_2 C1W_2 1_555 1_555
O1IA_2 Cu1I 1_555 1_555
Cu1L_3 O1O 1_555 1_555
O1O C1O 1_555 1_555
C1O C2O 1_555 1_555
C2O C3O 1_555 1_555
C3O H1O 1_555 1_555
O1R C1R 1_555 1_555
C1R C2R 1_555 1_555
C2R C3R 1_555 1_555
C3R C2O 1_555 1_555
H1R C3R 1_555 1_555
O1T C1T 1_555 1_555
C1T C2T 1_555 1_555
C2T C3O 1_555 1_555
C3T C2R 1_555 1_555
H1T C3T 1_555 1_555
O1AA C1O 1_555 1_555
O1DA Cu1D 1_555 1_555
O1FA C1R 1_555 1_555
Cu1_2 O1Z 1_555 1_555
Cu1_3 O1Y 1_555 1_555
Cu1A_2 O1AA 1_555 1_555
Cu1A_3 O1B 1_555 1_555
Cu1D_2 O1CA_2 1_555 1_555
Cu1D_3 Cl1D 1_555 1_555
Cu1E_2 O1BA 1_555 1_555
Cu1E_3 Cl1D_2 1_555 1_555
Cu1H_2 O1GA_2 1_555 1_555
Cu1I_3 O1FA 1_555 1_555
Cu1P O1OA 1_555 1_555
Cu1P_2 O1S_2 1_555 1_555
Cu1P_3 O1P_2 1_555 1_555
Cu1Q O1R 1_555 1_555
Cu1Q_2 O1NA 1_555 1_555
Cu1Q_3 O1QA 1_555 1_555
Cu1T O1W 1_555 1_555
Cu1T_2 O1SA 1_555 1_555
Cu1T_3 O1TA 1_555 1_555
Cu1U Cl1D_2 1_555 1_555
Cu1U_2 O1V_2 1_555 1_555
Cu1U_3 Cl1D 1_555 1_555
Cl1_2 Cu1L_3 1_555 1_555
Cl1_3 Cu1M_2 1_555 1_555
Cl1_4 Cu1L 1_555 1_555
Cl1H Cu1I_2 1_555 1_555
Cl1H_2 Cu1I 1_555 1_555
O1B_2 Cu1A 1_555 1_555
O1C Cu1 1_555 1_555
O1D_2 Cu1D 1_555 1_555
O1F Cu1E 1_555 1_555
O1H Cu1H 1_555 1_555
O1I_2 Cu1I_2 1_555 1_555
O1J_2 Cu1I 1_555 1_555
O1L_3 Cu1L_3 1_555 1_555
O1M Cu1M_2 1_555 1_555
O1M_2 Cu1M 1_555 1_555
O1O_2 Cu1L 1_555 1_555
O1O_3 Cu1L_2 1_555 1_555
O1X Cu1A 1_555 1_555
O1AA_2 Cu1A 1_555 1_555
O1BA_3 Cu1E 1_555 1_555
O1EA Cu1E 1_555 1_555
O1FA_2 Cu1I_2 1_555 1_555
O1FA_3 Cu1I 1_555 1_555
O1HA Cu1H 1_555 1_555
O1JA_2 Cu1M_2 1_555 1_555
O1KA_2 Cu1L_3 1_555 1_555
O1KA_3 Cu1L 1_555 1_555
O1LA_2 Cu1L_3 1_555 1_555
O1LA_3 Cu1L_2 1_555 1_555
O1MA Cu1M_2 1_555 1_555
O1MA_2 Cu1M 1_555 1_555
C2J C3J 1_555 1_555
O1KA Cu1L_2 1_555 1_555
C2I C3I 1_555 1_555
O1JA Cu1M 1_555 1_555
Cl1D Cu1T_3 1_555 1_555
Cl1D_2 Cu1T_2 1_555 1_555
Cu1H Cl1H 1_555 1_555
O1D Cu1D_3 1_555 1_555
C2D C3D 1_555 1_555
O1UA Cu1U_3 1_555 1_555
O1S Cu1P 1_555 1_555
C1S O1GA 1_555 1_555
O1V Cu1U 1_555 1_555
C1V O1CA 1_555 1_555
C2V C3V 1_555 1_555
C1L_2 O1Y_2 1_555 1_555
C2V_2 C3V_2 1_555 1_555
O1P Cu1P 1_555 1_555
C1P O1IA 1_555 1_555
C2W C3W 1_555 1_555
C1N_2 O1Z_2 1_555 1_555
C1P_2 O1IA_2 1_555 1_555
O1W_2 Cu1T_2 1_555 1_555
C2W_2 C3W_2 1_555 1_555
O1BA_2 Cu1E_3 1_555 1_555
O1T Cu1T_2 1_555 1_555
C1T O1DA 1_555 1_555
C2T C3T 1_555 1_555
Cu1_2 Cl1_3 1_555 1_555
Cu1_3 Cl1_4 1_555 1_555
Cu1A_2 Cl1_2 1_555 1_555
Cu1A_3 Cl1_4 1_555 1_555
Cu1P Cl1H 1_555 1_555
Cu1P_3 Cl1H_2 1_555 1_555
Cu1Q_2 Cl1H 1_555 1_555
Cu1Q_3 Cl1H_2 1_555 1_555

#END
